version 3
run General-0-20260424-13:25:16-302164
attr configname General
attr datetime 20260424-13:25:16
attr datetimef 20260424-132516
attr experiment General
attr inifile omnetpp.ini
attr iterationvars ""
attr iterationvarsd ""
attr iterationvarsf ""
attr measurement ""
attr network IoTNetwork
attr processid 302164
attr repetition 0
attr replication #0
attr resultdir results
attr runnumber 0
attr seedset 0
config **.cmdenv-log-level info
config sim-time-limit 100s
config network IoTNetwork
config sim-time-limit 100s
config ned-path ./:/home/ubuntuy/omnetpp-6.0.3/samples/inet4.5/src
config **.constraintAreaMinX 0m
config **.constraintAreaMinY 0m
config **.constraintAreaMinZ 0m
config **.constraintAreaMaxX 1200m
config **.constraintAreaMaxY 900m
config **.constraintAreaMaxZ 0m
config *.configurator.addStaticRoutes false
config *.configurator.addDefaultRoutes false
config *.configurator.addSubnetRoutes false
config *.configurator.config "xmldoc(\"config.xml\")"
config **.wlan[*].radio.radioMediumModule "\"radioMedium\""
config **.wlan[*].radio.transmitter.power 20mW
config **.wlan[*].bitrate 11Mbps
config **.aodv.activeRouteTimeout 3s
config **.aodv.deletePeriod 5s
config **.aodv.helloInterval 0.5s
config **.aodv.allowedHelloLoss 2
config **.aodv.rreqRetries 3
config **.aodv.rreqRatelimit 10
config **.aodv.ttlStart 2
config **.aodv.ttlIncrement 2
config **.aodv.ttlThreshold 7
config **.aodv.jitterPar 0.005s
config **.aodv.displayBubbles true
config **.pufAuthApp.authStartTime 8s
config **.pufAuthApp.authInterval 2s
config **.pufAuthApp.cmdenv-log-level trace
config *.cameraA[0].mobility.initialX 114m
config *.cameraA[0].mobility.initialY 54m
config *.cameraA[0].mobility.initialZ 0m
config *.cameraA[1].mobility.initialX 221m
config *.cameraA[1].mobility.initialY 219m
config *.cameraA[1].mobility.initialZ 0m
config *.phoneA[0].mobility.initialX 196m
config *.phoneA[0].mobility.initialY 63m
config *.phoneA[0].mobility.initialZ 0m
config *.phoneA[1].mobility.initialX 152m
config *.phoneA[1].mobility.initialY 190m
config *.phoneA[1].mobility.initialZ 0m
config *.watchA[0].mobility.initialX 248m
config *.watchA[0].mobility.initialY 82m
config *.watchA[0].mobility.initialZ 0m
config *.cameraB[0].mobility.initialX 524m
config *.cameraB[0].mobility.initialY 100m
config *.cameraB[0].mobility.initialZ 0m
config *.cameraB[1].mobility.initialX 481m
config *.cameraB[1].mobility.initialY 240m
config *.cameraB[1].mobility.initialZ 0m
config *.cameraB[2].mobility.initialX 340m
config *.cameraB[2].mobility.initialY 180m
config *.cameraB[2].mobility.initialZ 0m
config *.watchB[0].mobility.initialX 437m
config *.watchB[0].mobility.initialY 103m
config *.watchB[0].mobility.initialZ 0m
config *.watchB[1].mobility.initialX 507m
config *.watchB[1].mobility.initialY 56m
config *.watchB[1].mobility.initialZ 0m
config *.phoneC[0].mobility.initialX 769m
config *.phoneC[0].mobility.initialY 184m
config *.phoneC[0].mobility.initialZ 0m
config *.phoneC[1].mobility.initialX 716m
config *.phoneC[1].mobility.initialY 238m
config *.phoneC[1].mobility.initialZ 0m
config *.watchC[0].mobility.initialX 797m
config *.watchC[0].mobility.initialY 100m
config *.watchC[0].mobility.initialZ 0m
config *.watchC[1].mobility.initialX 793m
config *.watchC[1].mobility.initialY 64m
config *.watchC[1].mobility.initialZ 0m
config *.watchC[2].mobility.initialX 840m
config *.watchC[2].mobility.initialY 162m
config *.watchC[2].mobility.initialZ 0m
config *.cameraD[0].mobility.initialX 1123m
config *.cameraD[0].mobility.initialY 67m
config *.cameraD[0].mobility.initialZ 0m
config *.phoneD[0].mobility.initialX 1012m
config *.phoneD[0].mobility.initialY 176m
config *.phoneD[0].mobility.initialZ 0m
config *.phoneD[1].mobility.initialX 983m
config *.phoneD[1].mobility.initialY 92m
config *.phoneD[1].mobility.initialZ 0m
config *.phoneD[2].mobility.initialX 1096m
config *.phoneD[2].mobility.initialY 122m
config *.phoneD[2].mobility.initialZ 0m
config *.watchD[0].mobility.initialX 983m
config *.watchD[0].mobility.initialY 91m
config *.watchD[0].mobility.initialZ 0m
config *.cameraE[0].mobility.initialX 165m
config *.cameraE[0].mobility.initialY 500m
config *.cameraE[0].mobility.initialZ 0m
config *.cameraE[1].mobility.initialX 221m
config *.cameraE[1].mobility.initialY 419m
config *.cameraE[1].mobility.initialZ 0m
config *.phoneE[0].mobility.initialX 225m
config *.phoneE[0].mobility.initialY 494m
config *.phoneE[0].mobility.initialZ 0m
config *.phoneE[1].mobility.initialX 217m
config *.phoneE[1].mobility.initialY 418m
config *.phoneE[1].mobility.initialZ 0m
config *.watchE[0].mobility.initialX 189m
config *.watchE[0].mobility.initialY 459m
config *.watchE[0].mobility.initialZ 0m
config *.phoneF[0].mobility.initialX 366m
config *.phoneF[0].mobility.initialY 389m
config *.phoneF[0].mobility.initialZ 0m
config *.watchF[0].mobility.initialX 423m
config *.watchF[0].mobility.initialY 364m
config *.watchF[0].mobility.initialZ 0m
config *.watchF[1].mobility.initialX 559m
config *.watchF[1].mobility.initialY 424m
config *.watchF[1].mobility.initialZ 0m
config *.watchF[2].mobility.initialX 514m
config *.watchF[2].mobility.initialY 394m
config *.watchF[2].mobility.initialZ 0m
config *.watchF[3].mobility.initialX 518m
config *.watchF[3].mobility.initialY 453m
config *.watchF[3].mobility.initialZ 0m
config *.cameraG[0].mobility.initialX 778m
config *.cameraG[0].mobility.initialY 558m
config *.cameraG[0].mobility.initialZ 0m
config *.cameraG[1].mobility.initialX 725m
config *.cameraG[1].mobility.initialY 512m
config *.cameraG[1].mobility.initialZ 0m
config *.phoneG[0].mobility.initialX 819m
config *.phoneG[0].mobility.initialY 523m
config *.phoneG[0].mobility.initialZ 0m
config *.phoneG[1].mobility.initialX 832m
config *.phoneG[1].mobility.initialY 417m
config *.phoneG[1].mobility.initialZ 0m
config *.watchG[0].mobility.initialX 714m
config *.watchG[0].mobility.initialY 366m
config *.watchG[0].mobility.initialZ 0m
config *.cameraH[0].mobility.initialX 1118m
config *.cameraH[0].mobility.initialY 513m
config *.cameraH[0].mobility.initialZ 0m
config *.watchH[0].mobility.initialX 974m
config *.watchH[0].mobility.initialY 479m
config *.watchH[0].mobility.initialZ 0m
config *.watchH[1].mobility.initialX 957m
config *.watchH[1].mobility.initialY 384m
config *.watchH[1].mobility.initialZ 0m
config *.watchH[2].mobility.initialX 1104m
config *.watchH[2].mobility.initialY 498m
config *.watchH[2].mobility.initialZ 0m
config *.watchH[3].mobility.initialX 1098m
config *.watchH[3].mobility.initialY 548m
config *.watchH[3].mobility.initialZ 0m
config *.cameraI[0].mobility.initialX 151m
config *.cameraI[0].mobility.initialY 634m
config *.cameraI[0].mobility.initialZ 0m
config *.cameraI[1].mobility.initialX 187m
config *.cameraI[1].mobility.initialY 713m
config *.cameraI[1].mobility.initialZ 0m
config *.cameraI[2].mobility.initialX 102m
config *.cameraI[2].mobility.initialY 733m
config *.cameraI[2].mobility.initialZ 0m
config *.phoneI[0].mobility.initialX 74m
config *.phoneI[0].mobility.initialY 675m
config *.phoneI[0].mobility.initialZ 0m
config *.watchI[0].mobility.initialX 204m
config *.watchI[0].mobility.initialY 832m
config *.watchI[0].mobility.initialZ 0m
config *.cameraJ[0].mobility.initialX 346m
config *.cameraJ[0].mobility.initialY 729m
config *.cameraJ[0].mobility.initialZ 0m
config *.cameraJ[1].mobility.initialX 444m
config *.cameraJ[1].mobility.initialY 668m
config *.cameraJ[1].mobility.initialZ 0m
config *.watchJ[0].mobility.initialX 472m
config *.watchJ[0].mobility.initialY 714m
config *.watchJ[0].mobility.initialZ 0m
config *.watchJ[1].mobility.initialX 398m
config *.watchJ[1].mobility.initialY 738m
config *.watchJ[1].mobility.initialZ 0m
config *.watchJ[2].mobility.initialX 334m
config *.watchJ[2].mobility.initialY 716m
config *.watchJ[2].mobility.initialZ 0m
config **.camera*[*].mobility.typename StationaryMobility
config **.watch*[*].mobility.typename StationaryMobility
config **.phone*[*].mobility.typename RandomWaypointMobility
config **.phone*[*].mobility.speed "uniform(0.5mps, 2mps)"
config **.phone*[*].mobility.waitTime "uniform(1s, 5s)"
config *.phoneA[0].numApps 1
config *.phoneA[0].app[0].typename UdpBasicApp
config *.phoneA[0].app[0].destAddresses "\"cameraB[0]\""
config *.phoneA[0].app[0].destPort 5000
config *.phoneA[0].app[0].messageLength 512B
config *.phoneA[0].app[0].sendInterval 2s
config *.phoneA[0].app[0].startTime 10s
config *.cameraB[0].numApps 1
config *.cameraB[0].app[0].typename UdpSink
config *.cameraB[0].app[0].localPort 5000
config *.phoneC[0].numApps 1
config *.phoneC[0].app[0].typename UdpBasicApp
config *.phoneC[0].app[0].destAddresses "\"cameraA[0]\""
config *.phoneC[0].app[0].destPort 5001
config *.phoneC[0].app[0].messageLength 512B
config *.phoneC[0].app[0].sendInterval 2s
config *.phoneC[0].app[0].startTime 10s
config *.cameraA[0].numApps 1
config *.cameraA[0].app[0].typename UdpSink
config *.cameraA[0].app[0].localPort 5001
config *.phoneD[0].numApps 1
config *.phoneD[0].app[0].typename UdpBasicApp
config *.phoneD[0].app[0].destAddresses "\"cameraE[0]\""
config *.phoneD[0].app[0].destPort 5002
config *.phoneD[0].app[0].messageLength 512B
config *.phoneD[0].app[0].sendInterval 2s
config *.phoneD[0].app[0].startTime 10s
config *.cameraE[0].numApps 1
config *.cameraE[0].app[0].typename UdpSink
config *.cameraE[0].app[0].localPort 5002
config *.cameraA[1].numApps 0
config *.phoneA[1].numApps 0
config *.watchA[0].numApps 0
config *.cameraB[1].numApps 0
config *.cameraB[2].numApps 0
config *.watchB[0].numApps 0
config *.watchB[1].numApps 0
config *.phoneC[1].numApps 0
config *.watchC[0].numApps 0
config *.watchC[1].numApps 0
config *.watchC[2].numApps 0
config *.cameraD[0].numApps 0
config *.phoneD[1].numApps 0
config *.phoneD[2].numApps 0
config *.watchD[0].numApps 0
config *.cameraE[1].numApps 0
config *.phoneE[0].numApps 0
config *.phoneE[1].numApps 0
config *.watchE[0].numApps 0
config *.phoneF[0].numApps 0
config *.watchF[0].numApps 0
config *.watchF[1].numApps 0
config *.watchF[2].numApps 0
config *.watchF[3].numApps 0
config *.cameraG[0].numApps 0
config *.cameraG[1].numApps 0
config *.phoneG[0].numApps 0
config *.phoneG[1].numApps 0
config *.watchG[0].numApps 0
config *.cameraH[0].numApps 0
config *.watchH[0].numApps 0
config *.watchH[1].numApps 0
config *.watchH[2].numApps 0
config *.watchH[3].numApps 0
config *.cameraI[0].numApps 0
config *.cameraI[1].numApps 0
config *.cameraI[2].numApps 0
config *.phoneI[0].numApps 0
config *.watchI[0].numApps 0
config *.cameraJ[0].numApps 0
config *.cameraJ[1].numApps 0
config *.watchJ[0].numApps 0
config *.watchJ[1].numApps 0
config *.watchJ[2].numApps 0

par IoTNetwork.configurator typename "\"inet.networklayer.configurator.ipv4.Ipv4NetworkConfigurator\""
par IoTNetwork.configurator minLinkWeight 0.001
par IoTNetwork.configurator configureIsolatedNetworksSeparatly false
par IoTNetwork.configurator config "<config>...</config> at /home/ubuntuy/omnetpp-6.0.3/samples/iot-wifi//config.xml:2"
par IoTNetwork.configurator assignAddresses true
par IoTNetwork.configurator assignUniqueAddresses true
par IoTNetwork.configurator assignDisjunctSubnetAddresses true
par IoTNetwork.configurator addStaticRoutes false
par IoTNetwork.configurator addDefaultRoutes false
par IoTNetwork.configurator addSubnetRoutes false
par IoTNetwork.configurator addDirectRoutes true
par IoTNetwork.configurator optimizeRoutes true
par IoTNetwork.configurator dumpTopology false
par IoTNetwork.configurator dumpLinks false
par IoTNetwork.configurator dumpAddresses false
par IoTNetwork.configurator dumpRoutes false
par IoTNetwork.configurator dumpConfig "\"\""
par IoTNetwork.radioMedium.propagation typename "\"inet.physicallayer.wireless.common.propagation.ConstantSpeedPropagation\""
par IoTNetwork.radioMedium.propagation propagationSpeed 2.99792e+08mps
attr unit mps
par IoTNetwork.radioMedium.propagation ignoreMovementDuringTransmission true
par IoTNetwork.radioMedium.propagation ignoreMovementDuringPropagation true
par IoTNetwork.radioMedium.propagation ignoreMovementDuringReception true
scalar IoTNetwork.radioMedium.propagation "Arrival computation count" 31556
par IoTNetwork.radioMedium.analogModel typename "\"inet.physicallayer.wireless.common.analogmodel.packetlevel.ScalarAnalogModel\""
par IoTNetwork.radioMedium.analogModel ignorePartialInterference false
par IoTNetwork.radioMedium.backgroundNoise typename "\"inet.physicallayer.wireless.common.backgroundnoise.IsotropicScalarBackgroundNoise\""
par IoTNetwork.radioMedium.backgroundNoise power -110dBm
attr unit dBm
par IoTNetwork.radioMedium.backgroundNoise bandwidth "nan Hz"
attr unit Hz
par IoTNetwork.radioMedium.pathLoss typename "\"inet.physicallayer.wireless.common.pathloss.FreeSpacePathLoss\""
par IoTNetwork.radioMedium.pathLoss alpha 2
par IoTNetwork.radioMedium.pathLoss systemLoss 0dB
attr unit dB
par IoTNetwork.radioMedium.mediumLimitCache typename "\"inet.physicallayer.wireless.common.medium.MediumLimitCache\""
par IoTNetwork.radioMedium.mediumLimitCache centerFrequency 2.4e+09Hz
attr unit Hz
par IoTNetwork.radioMedium.mediumLimitCache maxSpeed "nan mps"
attr unit mps
par IoTNetwork.radioMedium.mediumLimitCache maxTransmissionPower "nan W"
attr unit W
par IoTNetwork.radioMedium.mediumLimitCache minInterferencePower -110dBm
attr unit dBm
par IoTNetwork.radioMedium.mediumLimitCache minReceptionPower -85dBm
attr unit dBm
par IoTNetwork.radioMedium.mediumLimitCache maxAntennaGain 0dB
attr unit dB
par IoTNetwork.radioMedium.mediumLimitCache minInterferenceTime 1e-12s
attr unit s
par IoTNetwork.radioMedium.mediumLimitCache maxTransmissionDuration 0.01s
attr unit s
par IoTNetwork.radioMedium.mediumLimitCache maxCommunicationRange "nan m"
attr unit m
par IoTNetwork.radioMedium.mediumLimitCache maxInterferenceRange "nan m"
attr unit m
par IoTNetwork.radioMedium.communicationCache typename "\"inet.physicallayer.wireless.common.communicationcache.VectorCommunicationCache\""
par IoTNetwork.radioMedium typename "\"inet.physicallayer.wireless.ieee80211.packetlevel.Ieee80211ScalarRadioMedium\""
par IoTNetwork.radioMedium physicalEnvironmentModule "\"physicalEnvironment\""
par IoTNetwork.radioMedium signalAnalogRepresentation "\"scalar\""
attr enum unitDisk,scalar,dimensional
par IoTNetwork.radioMedium rangeFilter "\"\""
par IoTNetwork.radioMedium radioModeFilter false
par IoTNetwork.radioMedium listeningFilter false
par IoTNetwork.radioMedium macAddressFilter false
par IoTNetwork.radioMedium recordTransmissionLog false
par IoTNetwork.radioMedium recordReceptionLog false
scalar IoTNetwork.radioMedium "transmission count" 644
scalar IoTNetwork.radioMedium "signal send count" 31556
scalar IoTNetwork.radioMedium "reception computation count" 31409
scalar IoTNetwork.radioMedium "interference computation count" 84672
scalar IoTNetwork.radioMedium "reception decision computation count" 20877
scalar IoTNetwork.radioMedium "listening decision computation count" 32794
scalar IoTNetwork.radioMedium "reception cache hit" 85.623395110609
attr unit %
scalar IoTNetwork.radioMedium "interference cache hit" 66.666666666667
attr unit %
scalar IoTNetwork.radioMedium "noise cache hit" 0
attr unit %
scalar IoTNetwork.radioMedium "snir cache hit" 50
attr unit %
scalar IoTNetwork.radioMedium "reception decision cache hit" 50
attr unit %
scalar IoTNetwork.radioMedium "reception result cache hit" 0
attr unit %
par IoTNetwork.cameraA[0].radioIn[0].channel typename "\"ned.IdealChannel\""
par IoTNetwork.cameraA[0].mobility typename "\"inet.mobility.static.StationaryMobility\""
par IoTNetwork.cameraA[0].mobility subjectModule "\"^\""
par IoTNetwork.cameraA[0].mobility coordinateSystemModule "\"\""
par IoTNetwork.cameraA[0].mobility displayStringTextFormat "\"p: %p\\nv: %v\""
attr mutable ""
par IoTNetwork.cameraA[0].mobility updateDisplayString true
par IoTNetwork.cameraA[0].mobility constraintAreaMinX 0m
attr unit m
par IoTNetwork.cameraA[0].mobility constraintAreaMinY 0m
attr unit m
par IoTNetwork.cameraA[0].mobility constraintAreaMinZ 0m
attr unit m
par IoTNetwork.cameraA[0].mobility constraintAreaMaxX 1200m
attr unit m
par IoTNetwork.cameraA[0].mobility constraintAreaMaxY 900m
attr unit m
par IoTNetwork.cameraA[0].mobility constraintAreaMaxZ 0m
attr unit m
par IoTNetwork.cameraA[0].mobility initialX 114m
attr unit m
par IoTNetwork.cameraA[0].mobility initialY 54m
attr unit m
par IoTNetwork.cameraA[0].mobility initialZ 0m
attr unit m
par IoTNetwork.cameraA[0].mobility initialLatitude "nan deg"
attr unit deg
par IoTNetwork.cameraA[0].mobility initialLongitude "nan deg"
attr unit deg
par IoTNetwork.cameraA[0].mobility initialAltitude 0m
attr unit m
par IoTNetwork.cameraA[0].mobility initialHeading 0deg
attr unit deg
par IoTNetwork.cameraA[0].mobility initialElevation 0deg
attr unit deg
par IoTNetwork.cameraA[0].mobility initialBank 0deg
attr unit deg
par IoTNetwork.cameraA[0].mobility initFromDisplayString true
par IoTNetwork.cameraA[0].mobility updateFromDisplayString true
par IoTNetwork.cameraA[0].interfaceTable typename "\"inet.networklayer.common.InterfaceTable\""
par IoTNetwork.cameraA[0].interfaceTable displayAddresses false
par IoTNetwork.cameraA[0].cb typename "\"inet.common.MessageDispatcher\""
par IoTNetwork.cameraA[0].cb displayStringTextFormat "\"processed %p pk (%l)\""
par IoTNetwork.cameraA[0].cb forwardServiceRegistration true
par IoTNetwork.cameraA[0].cb forwardProtocolRegistration true
par IoTNetwork.cameraA[0].bl typename "\"inet.common.MessageDispatcher\""
par IoTNetwork.cameraA[0].bl displayStringTextFormat "\"processed %p pk (%l)\""
par IoTNetwork.cameraA[0].bl forwardServiceRegistration true
par IoTNetwork.cameraA[0].bl forwardProtocolRegistration true
par IoTNetwork.cameraA[0].li typename "\"inet.common.MessageDispatcher\""
par IoTNetwork.cameraA[0].li displayStringTextFormat "\"processed %p pk (%l)\""
par IoTNetwork.cameraA[0].li forwardServiceRegistration true
par IoTNetwork.cameraA[0].li forwardProtocolRegistration true
par IoTNetwork.cameraA[0].lo[0].upperLayerIn.channel typename "\"ned.IdealChannel\""
par IoTNetwork.cameraA[0].lo[0].lo.upperLayerOut.channel typename "\"ned.IdealChannel\""
par IoTNetwork.cameraA[0].lo[0].lo typename "\"inet.linklayer.loopback.Loopback\""
par IoTNetwork.cameraA[0].lo[0].lo interfaceTableModule "\"IoTNetwork.cameraA[0].interfaceTable\""
par IoTNetwork.cameraA[0].lo[0].lo mtu 4470B
attr unit B
scalar IoTNetwork.cameraA[0].lo[0].lo rcvdPkFromHl:count 0
attr interpolationmode none
attr recordingmode count
attr source packetReceivedFromUpper
attr title "packets received from higher layer, count"
scalar IoTNetwork.cameraA[0].lo[0].lo rcvdPkFromHl:sum(packetBytes) 0
attr interpolationmode none
attr recordingmode sum(packetBytes)
attr source packetReceivedFromUpper
attr title "packets received from higher layer, sum(packetBytes)"
scalar IoTNetwork.cameraA[0].lo[0].lo passedUpPk:count 0
attr interpolationmode none
attr recordingmode count
attr source packetSentToUpper
attr title "packets passed to higher layer, count"
scalar IoTNetwork.cameraA[0].lo[0].lo passedUpPk:sum(packetBytes) 0
attr interpolationmode none
attr recordingmode sum(packetBytes)
attr source packetSentToUpper
attr title "packets passed to higher layer, sum(packetBytes)"
par IoTNetwork.cameraA[0].lo[0] typename "\"inet.linklayer.loopback.LoopbackInterface\""
par IoTNetwork.cameraA[0].lo[0] displayStringTextFormat "\"%a (%i)\\n%m\""
par IoTNetwork.cameraA[0].lo[0] recordPcap false
par IoTNetwork.cameraA[0].lo[0] numPcapRecorders 0
par IoTNetwork.cameraA[0].lo[0] interfaceTableModule "\"IoTNetwork.cameraA[0].interfaceTable\""
scalar IoTNetwork.cameraA[0].lo[0] packetDropInterfaceDown:count 0
attr interpolationmode none
attr recordingmode count
attr source packetDropReasonIsInterfaceDown(packetDropped)
attr title "packet drops: interface down, count"
scalar IoTNetwork.cameraA[0].lo[0] packetDropInterfaceDown:sum(packetBytes) 0
attr interpolationmode none
attr recordingmode sum(packetBytes)
attr source packetDropReasonIsInterfaceDown(packetDropped)
attr title "packet drops: interface down, sum(packetBytes)"
scalar IoTNetwork.cameraA[0].lo[0] packetDropNoCarrier:count 0
attr interpolationmode none
attr recordingmode count
attr source packetDropReasonIsNoCarrier(packetDropped)
attr title "packet drops: no carrier, count"
scalar IoTNetwork.cameraA[0].lo[0] packetDropNoCarrier:sum(packetBytes) 0
attr interpolationmode none
attr recordingmode sum(packetBytes)
attr source packetDropReasonIsNoCarrier(packetDropped)
attr title "packet drops: no carrier, sum(packetBytes)"
par IoTNetwork.cameraA[0].wlan[0].radioIn.channel typename "\"ned.IdealChannel\""
par IoTNetwork.cameraA[0].wlan[0].llc.upperLayerOut.channel typename "\"ned.IdealChannel\""
par IoTNetwork.cameraA[0].wlan[0].upperLayerIn.channel typename "\"ned.IdealChannel\""
par IoTNetwork.cameraA[0].wlan[0].mib typename "\"inet.linklayer.ieee80211.mib.Ieee80211Mib\""
par IoTNetwork.cameraA[0].wlan[0].llc typename "\"inet.linklayer.ieee80211.llc.Ieee80211LlcLpd\""
par IoTNetwork.cameraA[0].wlan[0].llc registerProtocol false
par IoTNetwork.cameraA[0].wlan[0].mgmt typename "\"inet.linklayer.ieee80211.mgmt.Ieee80211MgmtAdhoc\""
par IoTNetwork.cameraA[0].wlan[0].mgmt mibModule "\"IoTNetwork.cameraA[0].wlan[0].mib\""
par IoTNetwork.cameraA[0].wlan[0].mgmt macModule "\"IoTNetwork.cameraA[0].wlan[0].mac\""
par IoTNetwork.cameraA[0].wlan[0].mgmt interfaceTableModule "\"IoTNetwork.cameraA[0].interfaceTable\""
par IoTNetwork.cameraA[0].wlan[0].mac.dcf.channelAccess.pendingQueue typename "\"inet.linklayer.ieee80211.mac.queue.PendingQueue\""
par IoTNetwork.cameraA[0].wlan[0].mac.dcf.channelAccess.pendingQueue displayStringTextFormat "\"contains %p pk (%l) pushed %u\\npulled %o removed %r dropped %d\""
par IoTNetwork.cameraA[0].wlan[0].mac.dcf.channelAccess.pendingQueue packetCapacity 100
par IoTNetwork.cameraA[0].wlan[0].mac.dcf.channelAccess.pendingQueue dataCapacity -1b
attr unit b
par IoTNetwork.cameraA[0].wlan[0].mac.dcf.channelAccess.pendingQueue dropperClass "\"inet::queueing::PacketAtCollectionEndDropper\""
par IoTNetwork.cameraA[0].wlan[0].mac.dcf.channelAccess.pendingQueue comparatorClass "\"inet::ieee80211::MgmtOverDataComparator\""
par IoTNetwork.cameraA[0].wlan[0].mac.dcf.channelAccess.pendingQueue bufferModule "\"\""
scalar IoTNetwork.cameraA[0].wlan[0].mac.dcf.channelAccess.pendingQueue queueLength:last 0
attr autoWarmupFilter false
attr interpolationmode sample-hold
attr recordingmode last
attr source "warmup(atomic(constant0(packetPushEnded) + count(packetPushStarted) - count(packetPulled) - count(packetRemoved) - count(packetDropped)))"
attr title "queue length, last"
attr unit pk
scalar IoTNetwork.cameraA[0].wlan[0].mac.dcf.channelAccess.pendingQueue queueLength:max 2
attr autoWarmupFilter false
attr interpolationmode sample-hold
attr recordingmode max
attr source "warmup(atomic(constant0(packetPushEnded) + count(packetPushStarted) - count(packetPulled) - count(packetRemoved) - count(packetDropped)))"
attr title "queue length, max"
attr unit pk
scalar IoTNetwork.cameraA[0].wlan[0].mac.dcf.channelAccess.pendingQueue queueLength:timeavg 0.00023115531674
attr autoWarmupFilter false
attr interpolationmode sample-hold
attr recordingmode timeavg
attr source "warmup(atomic(constant0(packetPushEnded) + count(packetPushStarted) - count(packetPulled) - count(packetRemoved) - count(packetDropped)))"
attr title "queue length, timeavg"
attr unit pk
scalar IoTNetwork.cameraA[0].wlan[0].mac.dcf.channelAccess.pendingQueue queueBitLength:last 0
attr autoWarmupFilter false
attr interpolationmode sample-hold
attr recordingmode last
attr source "warmup(atomic(constant0(packetPushEnded) + sum(packetLength(packetPushStarted)) - sum(packetLength(packetPulled)) - sum(packetLength(packetRemoved)) - sum(packetLength(packetDropped))))"
attr title "queue bit length, last"
attr unit b
scalar IoTNetwork.cameraA[0].wlan[0].mac.dcf.channelAccess.pendingQueue queueBitLength:max 1408
attr autoWarmupFilter false
attr interpolationmode sample-hold
attr recordingmode max
attr source "warmup(atomic(constant0(packetPushEnded) + sum(packetLength(packetPushStarted)) - sum(packetLength(packetPulled)) - sum(packetLength(packetRemoved)) - sum(packetLength(packetDropped))))"
attr title "queue bit length, max"
attr unit b
scalar IoTNetwork.cameraA[0].wlan[0].mac.dcf.channelAccess.pendingQueue queueBitLength:timeavg 0.16175318298496
attr autoWarmupFilter false
attr interpolationmode sample-hold
attr recordingmode timeavg
attr source "warmup(atomic(constant0(packetPushEnded) + sum(packetLength(packetPushStarted)) - sum(packetLength(packetPulled)) - sum(packetLength(packetRemoved)) - sum(packetLength(packetDropped))))"
attr title "queue bit length, timeavg"
attr unit b
statistic IoTNetwork.cameraA[0].wlan[0].mac.dcf.channelAccess.pendingQueue queueingTime:histogram
field count 4
field mean 0.0057788829185
field stddev 0.0061548551015847
field min 0.00043
field max 0.01151009327
field sum 0.023115531674
field sqrsum 0.00024722867510743
attr interpolationmode none
attr recordingmode histogram
attr source queueingTime(packetPulled)
attr title "queueing times"
attr unit s
bin	-inf	0
bin	0	0
bin	0.0002	0
bin	0.0004	2
bin	0.0006	0
bin	0.0008	0
bin	0.001	0
bin	0.0012	0
bin	0.0014	0
bin	0.0016	0
bin	0.0018	0
bin	0.002	0
bin	0.0022	0
bin	0.0024	0
bin	0.0026	0
bin	0.0028	0
bin	0.003	0
bin	0.0032	0
bin	0.0034	0
bin	0.0036	0
bin	0.0038	0
bin	0.004	0
bin	0.0042	0
bin	0.0044	0
bin	0.0046	0
bin	0.0048	0
bin	0.005	0
bin	0.0052	0
bin	0.0054	0
bin	0.0056	0
bin	0.0058	0
bin	0.006	0
bin	0.0062	0
bin	0.0064	0
bin	0.0066	0
bin	0.0068	0
bin	0.007	0
bin	0.0072	0
bin	0.0074	0
bin	0.0076	0
bin	0.0078	0
bin	0.008	0
bin	0.0082	0
bin	0.0084	0
bin	0.0086	0
bin	0.0088	0
bin	0.009	0
bin	0.0092	0
bin	0.0094	0
bin	0.0096	0
bin	0.0098	0
bin	0.01	0
bin	0.0102	0
bin	0.0104	0
bin	0.0106	1
bin	0.0108	0
bin	0.011	0
bin	0.0112	0
bin	0.0114	1
bin	0.0116	0
bin	0.0118	0
bin	0.012	0
bin	0.0122	0
bin	0.0124	0
bin	0.0126	0
bin	0.0128	0
bin	0.013	0
bin	0.0132	0
bin	0.0134	0
bin	0.0136	0
bin	0.0138	0
bin	0.014	0
bin	0.0142	0
bin	0.0144	0
scalar IoTNetwork.cameraA[0].wlan[0].mac.dcf.channelAccess.pendingQueue outgoingPackets:count 4
attr recordingmode count
attr source packetPulled
attr title "outgoing packets, count"
attr unit pk
scalar IoTNetwork.cameraA[0].wlan[0].mac.dcf.channelAccess.pendingQueue outgoingPacketLengths:sum 2592
attr interpolationmode none
attr recordingmode sum
attr source packetLength(packetPulled)
attr title "outgoing packet lengths, sum"
attr unit b
statistic IoTNetwork.cameraA[0].wlan[0].mac.dcf.channelAccess.pendingQueue outgoingPacketLengths:histogram
field count 4
field mean 648
field stddev 91.913002344608
field min 512
field max 704
field sum 2592
field sqrsum 1704960
attr interpolationmode none
attr recordingmode histogram
attr source packetLength(packetPulled)
attr title "outgoing packet lengths"
attr unit b
bin	-inf	0
bin	460	0
bin	465	0
bin	470	0
bin	475	0
bin	480	0
bin	485	0
bin	490	0
bin	495	0
bin	500	0
bin	505	0
bin	510	1
bin	515	0
bin	520	0
bin	525	0
bin	530	0
bin	535	0
bin	540	0
bin	545	0
bin	550	0
bin	555	0
bin	560	0
bin	565	0
bin	570	0
bin	575	0
bin	580	0
bin	585	0
bin	590	0
bin	595	0
bin	600	0
bin	605	0
bin	610	0
bin	615	0
bin	620	0
bin	625	0
bin	630	0
bin	635	0
bin	640	0
bin	645	0
bin	650	0
bin	655	0
bin	660	0
bin	665	0
bin	670	1
bin	675	0
bin	680	0
bin	685	0
bin	690	0
bin	695	0
bin	700	2
bin	705	0
bin	710	0
bin	715	0
bin	720	0
bin	725	0
bin	730	0
bin	735	0
bin	740	0
bin	745	0
bin	750	0
bin	755	0
statistic IoTNetwork.cameraA[0].wlan[0].mac.dcf.channelAccess.pendingQueue flowQueueingTime:histogram
field count 0
field mean -nan
field stddev -nan
field min -nan
field max -nan
field sum 0
field sqrsum 0
attr interpolationmode none
attr recordingmode histogram
attr source queueingTime(demuxFlow(packetPulled))
attr title "flow queueing times"
attr unit s
bin	-inf	0
bin	0	0
bin	1	0
scalar IoTNetwork.cameraA[0].wlan[0].mac.dcf.channelAccess.pendingQueue incomingPackets:count 4
attr recordingmode count
attr source packetPushStarted
attr title "incoming packets, count"
attr unit pk
scalar IoTNetwork.cameraA[0].wlan[0].mac.dcf.channelAccess.pendingQueue incomingPacketLengths:sum 2592
attr interpolationmode none
attr recordingmode sum
attr source packetLength(packetPushStarted)
attr title "incoming packet lengths, sum"
attr unit b
statistic IoTNetwork.cameraA[0].wlan[0].mac.dcf.channelAccess.pendingQueue incomingPacketLengths:histogram
field count 4
field mean 648
field stddev 91.913002344608
field min 512
field max 704
field sum 2592
field sqrsum 1704960
attr interpolationmode none
attr recordingmode histogram
attr source packetLength(packetPushStarted)
attr title "incoming packet lengths"
attr unit b
bin	-inf	0
bin	460	0
bin	465	0
bin	470	0
bin	475	0
bin	480	0
bin	485	0
bin	490	0
bin	495	0
bin	500	0
bin	505	0
bin	510	1
bin	515	0
bin	520	0
bin	525	0
bin	530	0
bin	535	0
bin	540	0
bin	545	0
bin	550	0
bin	555	0
bin	560	0
bin	565	0
bin	570	0
bin	575	0
bin	580	0
bin	585	0
bin	590	0
bin	595	0
bin	600	0
bin	605	0
bin	610	0
bin	615	0
bin	620	0
bin	625	0
bin	630	0
bin	635	0
bin	640	0
bin	645	0
bin	650	0
bin	655	0
bin	660	0
bin	665	0
bin	670	1
bin	675	0
bin	680	0
bin	685	0
bin	690	0
bin	695	0
bin	700	2
bin	705	0
bin	710	0
bin	715	0
bin	720	0
bin	725	0
bin	730	0
bin	735	0
bin	740	0
bin	745	0
bin	750	0
bin	755	0
scalar IoTNetwork.cameraA[0].wlan[0].mac.dcf.channelAccess.pendingQueue droppedPacketsQueueOverflow:count 0
attr interpolationmode none
attr recordingmode count
attr source packetDropReasonIsQueueOverflow(packetDropped)
attr title "dropped packets: queue overflow, count"
attr unit pk
scalar IoTNetwork.cameraA[0].wlan[0].mac.dcf.channelAccess.pendingQueue droppedPacketLengthsQueueOverflow:sum 0
attr interpolationmode none
attr recordingmode sum
attr source packetLength(packetDropReasonIsQueueOverflow(packetDropped))
attr title "dropped packet lengths: queue overflow, sum"
attr unit b
par IoTNetwork.cameraA[0].wlan[0].mac.dcf.channelAccess.inProgressFrames typename "\"inet.linklayer.ieee80211.mac.queue.InProgressFrames\""
par IoTNetwork.cameraA[0].wlan[0].mac.dcf.channelAccess.inProgressFrames pendingQueueModule "\"^.pendingQueue\""
par IoTNetwork.cameraA[0].wlan[0].mac.dcf.channelAccess.inProgressFrames originatorMacDataServiceModule "\"^.^.originatorMacDataService\""
par IoTNetwork.cameraA[0].wlan[0].mac.dcf.channelAccess.inProgressFrames ackHandlerModule "\"^.^.ackHandler\""
statistic IoTNetwork.cameraA[0].wlan[0].mac.dcf.channelAccess.inProgressFrames queueingTime:histogram
field count 4
field mean 0.00110576305725
field stddev 0.0015717188237552
field min 0.000239
field max 0.003458063226
field sum 0.004423052229
field sqrsum 1.2301747937954e-05
attr interpolationmode none
attr recordingmode histogram
attr source queueingTime(packetDequeued)
attr title "queueing times"
bin	-inf	0
bin	0	0
bin	5e-05	0
bin	0.0001	0
bin	0.00015	0
bin	0.0002	1
bin	0.00025	1
bin	0.0003	0
bin	0.00035	0
bin	0.0004	0
bin	0.00045	1
bin	0.0005	0
bin	0.00055	0
bin	0.0006	0
bin	0.00065	0
bin	0.0007	0
bin	0.00075	0
bin	0.0008	0
bin	0.00085	0
bin	0.0009	0
bin	0.00095	0
bin	0.001	0
bin	0.00105	0
bin	0.0011	0
bin	0.00115	0
bin	0.0012	0
bin	0.00125	0
bin	0.0013	0
bin	0.00135	0
bin	0.0014	0
bin	0.00145	0
bin	0.0015	0
bin	0.00155	0
bin	0.0016	0
bin	0.00165	0
bin	0.0017	0
bin	0.00175	0
bin	0.0018	0
bin	0.00185	0
bin	0.0019	0
bin	0.00195	0
bin	0.002	0
bin	0.00205	0
bin	0.0021	0
bin	0.00215	0
bin	0.0022	0
bin	0.00225	0
bin	0.0023	0
bin	0.00235	0
bin	0.0024	0
bin	0.00245	0
bin	0.0025	0
bin	0.00255	0
bin	0.0026	0
bin	0.00265	0
bin	0.0027	0
bin	0.00275	0
bin	0.0028	0
bin	0.00285	0
bin	0.0029	0
bin	0.00295	0
bin	0.003	0
bin	0.00305	0
bin	0.0031	0
bin	0.00315	0
bin	0.0032	0
bin	0.00325	0
bin	0.0033	0
bin	0.00335	0
bin	0.0034	0
bin	0.00345	1
bin	0.0035	0
bin	0.00355	0
bin	0.0036	0
bin	0.00365	0
bin	0.0037	0
bin	0.00375	0
bin	0.0038	0
bin	0.00385	0
bin	0.0039	0
bin	0.00395	0
bin	0.004	0
bin	0.00405	0
bin	0.0041	0
bin	0.00415	0
bin	0.0042	0
bin	0.00425	0
bin	0.0043	0
scalar IoTNetwork.cameraA[0].wlan[0].mac.dcf.channelAccess.inProgressFrames queueLength:max 2
attr autoWarmupFilter false
attr interpolationmode sample-hold
attr recordingmode max
attr source "warmup(count(packetEnqueued) - count(packetDequeued))"
attr title "queue length, max"
scalar IoTNetwork.cameraA[0].wlan[0].mac.dcf.channelAccess.inProgressFrames queueLength:timeavg 4.423052229e-05
attr autoWarmupFilter false
attr interpolationmode sample-hold
attr recordingmode timeavg
attr source "warmup(count(packetEnqueued) - count(packetDequeued))"
attr title "queue length, timeavg"
par IoTNetwork.cameraA[0].wlan[0].mac.dcf.channelAccess.contention typename "\"inet.linklayer.ieee80211.mac.contention.Contention\""
par IoTNetwork.cameraA[0].wlan[0].mac.dcf.channelAccess.contention initialChannelBusy true
par IoTNetwork.cameraA[0].wlan[0].mac.dcf.channelAccess.contention backoffOptimization true
scalar IoTNetwork.cameraA[0].wlan[0].mac.dcf.channelAccess.contention channelAccessGranted:count 4
attr recordingmode count
attr title "channel access granted, count"
scalar IoTNetwork.cameraA[0].wlan[0].mac.dcf.channelAccess.contention stateChanged:count 2050
attr enum IDLE,DEFER,IFS_AND_BACKOFF
attr interpolationmode none
attr recordingmode count
attr title "contention state changed, count"
attr type enum
par IoTNetwork.cameraA[0].wlan[0].mac.dcf.channelAccess typename "\"inet.linklayer.ieee80211.mac.channelaccess.Dcaf\""
par IoTNetwork.cameraA[0].wlan[0].mac.dcf.channelAccess difsn -1
par IoTNetwork.cameraA[0].wlan[0].mac.dcf.channelAccess cwMin -1
par IoTNetwork.cameraA[0].wlan[0].mac.dcf.channelAccess cwMax -1
par IoTNetwork.cameraA[0].wlan[0].mac.dcf.channelAccess rxModule "\"^.^.rx\""
scalar IoTNetwork.cameraA[0].wlan[0].mac.dcf.channelAccess channelOwnershipChanged:count 8
attr interpolationmode sample-hold
attr recordingmode count
attr title "channel ownership, count"
par IoTNetwork.cameraA[0].wlan[0].mac.dcf.originatorMacDataService.fragmentationPolicy typename "\"inet.linklayer.ieee80211.mac.fragmentation.BasicFragmentationPolicy\""
par IoTNetwork.cameraA[0].wlan[0].mac.dcf.originatorMacDataService.fragmentationPolicy fragmentationThreshold 1500B
attr unit B
par IoTNetwork.cameraA[0].wlan[0].mac.dcf.originatorMacDataService typename "\"inet.linklayer.ieee80211.mac.originator.OriginatorMacDataService\""
scalar IoTNetwork.cameraA[0].wlan[0].mac.dcf.originatorMacDataService packetAggregated:count 0
attr recordingmode count
attr title "packets aggregated, count"
scalar IoTNetwork.cameraA[0].wlan[0].mac.dcf.originatorMacDataService packetFragmented:count 0
attr recordingmode count
attr title "packets fragmented, count"
par IoTNetwork.cameraA[0].wlan[0].mac.dcf.recipientMacDataService typename "\"inet.linklayer.ieee80211.mac.recipient.RecipientMacDataService\""
scalar IoTNetwork.cameraA[0].wlan[0].mac.dcf.recipientMacDataService packetDeaggregated:count 0
attr recordingmode count
attr title "packets deaggregated, count"
scalar IoTNetwork.cameraA[0].wlan[0].mac.dcf.recipientMacDataService packetDefragmented:count 89
attr recordingmode count
attr title "packets defragmented, count"
scalar IoTNetwork.cameraA[0].wlan[0].mac.dcf.recipientMacDataService packetDropDuplicateDetected:count 0
attr interpolationmode none
attr recordingmode count
attr source packetDropReasonIsDuplicateDetected(packetDropped)
attr title "packet drops: duplicate detected, count"
scalar IoTNetwork.cameraA[0].wlan[0].mac.dcf.recipientMacDataService packetDropDuplicateDetected:sum(packetBytes) 0
attr interpolationmode none
attr recordingmode sum(packetBytes)
attr source packetDropReasonIsDuplicateDetected(packetDropped)
attr title "packet drops: duplicate detected, sum(packetBytes)"
par IoTNetwork.cameraA[0].wlan[0].mac.dcf.rateSelection typename "\"inet.linklayer.ieee80211.mac.rateselection.RateSelection\""
par IoTNetwork.cameraA[0].wlan[0].mac.dcf.rateSelection rateControlModule "\"^.rateControl\""
par IoTNetwork.cameraA[0].wlan[0].mac.dcf.rateSelection multicastFrameBitrate -1bps
attr unit bps
par IoTNetwork.cameraA[0].wlan[0].mac.dcf.rateSelection responseAckFrameBitrate -1bps
attr unit bps
par IoTNetwork.cameraA[0].wlan[0].mac.dcf.rateSelection responseCtsFrameBitrate -1bps
attr unit bps
par IoTNetwork.cameraA[0].wlan[0].mac.dcf.rateSelection dataFrameBitrate 1.1e+07bps
attr unit bps
par IoTNetwork.cameraA[0].wlan[0].mac.dcf.rateSelection dataFrameBandwidth "nan Hz"
attr unit Hz
par IoTNetwork.cameraA[0].wlan[0].mac.dcf.rateSelection dataFrameNumSpatialStreams -1
par IoTNetwork.cameraA[0].wlan[0].mac.dcf.rateSelection mgmtFrameBitrate -1bps
attr unit bps
par IoTNetwork.cameraA[0].wlan[0].mac.dcf.rateSelection controlFrameBitrate -1bps
attr unit bps
par IoTNetwork.cameraA[0].wlan[0].mac.dcf.recoveryProcedure typename "\"inet.linklayer.ieee80211.mac.originator.NonQosRecoveryProcedure\""
par IoTNetwork.cameraA[0].wlan[0].mac.dcf.recoveryProcedure cwCalculatorModule "\"^.channelAccess\""
par IoTNetwork.cameraA[0].wlan[0].mac.dcf.recoveryProcedure rtsPolicyModule "\"^.rtsPolicy\""
par IoTNetwork.cameraA[0].wlan[0].mac.dcf.recoveryProcedure shortRetryLimit 7
par IoTNetwork.cameraA[0].wlan[0].mac.dcf.recoveryProcedure longRetryLimit 4
scalar IoTNetwork.cameraA[0].wlan[0].mac.dcf.recoveryProcedure retryLimitReached:count 0
attr recordingmode count
attr title "retry limit reached, count"
par IoTNetwork.cameraA[0].wlan[0].mac.dcf.originatorProtectionMechanism typename "\"inet.linklayer.ieee80211.mac.protectionmechanism.OriginatorProtectionMechanism\""
par IoTNetwork.cameraA[0].wlan[0].mac.dcf.originatorProtectionMechanism rateSelectionModule "\"^.rateSelection\""
par IoTNetwork.cameraA[0].wlan[0].mac.dcf.ackHandler typename "\"inet.linklayer.ieee80211.mac.originator.AckHandler\""
par IoTNetwork.cameraA[0].wlan[0].mac.dcf.originatorAckPolicy typename "\"inet.linklayer.ieee80211.mac.originator.OriginatorAckPolicy\""
par IoTNetwork.cameraA[0].wlan[0].mac.dcf.originatorAckPolicy rateSelectionModule "\"^.rateSelection\""
par IoTNetwork.cameraA[0].wlan[0].mac.dcf.originatorAckPolicy ackTimeout -1s
attr unit s
par IoTNetwork.cameraA[0].wlan[0].mac.dcf.recipientAckPolicy typename "\"inet.linklayer.ieee80211.mac.recipient.RecipientAckPolicy\""
par IoTNetwork.cameraA[0].wlan[0].mac.dcf.recipientAckPolicy rateSelectionModule "\"^.rateSelection\""
par IoTNetwork.cameraA[0].wlan[0].mac.dcf.rtsPolicy typename "\"inet.linklayer.ieee80211.mac.originator.RtsPolicy\""
par IoTNetwork.cameraA[0].wlan[0].mac.dcf.rtsPolicy rateSelectionModule "\"^.rateSelection\""
par IoTNetwork.cameraA[0].wlan[0].mac.dcf.rtsPolicy ctsTimeout -1s
attr unit s
par IoTNetwork.cameraA[0].wlan[0].mac.dcf.rtsPolicy rtsThreshold 2346B
attr unit B
par IoTNetwork.cameraA[0].wlan[0].mac.dcf.ctsPolicy typename "\"inet.linklayer.ieee80211.mac.recipient.CtsPolicy\""
par IoTNetwork.cameraA[0].wlan[0].mac.dcf.ctsPolicy rxModule "\"^.^.rx\""
par IoTNetwork.cameraA[0].wlan[0].mac.dcf.ctsPolicy rateSelectionModule "\"^.rateSelection\""
par IoTNetwork.cameraA[0].wlan[0].mac.dcf typename "\"inet.linklayer.ieee80211.mac.coordinationfunction.Dcf\""
par IoTNetwork.cameraA[0].wlan[0].mac.dcf rxModule "\"^.rx\""
par IoTNetwork.cameraA[0].wlan[0].mac.dcf txModule "\"^.tx\""
scalar IoTNetwork.cameraA[0].wlan[0].mac.dcf frameSequenceFinished:count 4
attr recordingmode count
attr title "finished frame sequences, count"
statistic IoTNetwork.cameraA[0].wlan[0].mac.dcf frameSequenceDuration:histogram
field count 4
field mean 0.00030524725075
field stddev 0.00011011982349423
field min 0.000239
field max 0.000469989003
field sum 0.001220989003
field sqrsum 4.0908266294093e-07
attr recordingmode histogram
attr source frameSequenceDuration(frameSequenceFinished)
attr title "frame sequence durations"
bin	-inf	0
bin	0.00018	0
bin	0.000185	0
bin	0.00019	0
bin	0.000195	0
bin	0.0002	0
bin	0.000205	0
bin	0.00021	0
bin	0.000215	0
bin	0.00022	0
bin	0.000225	0
bin	0.00023	0
bin	0.000235	1
bin	0.00024	0
bin	0.000245	0
bin	0.00025	0
bin	0.000255	2
bin	0.00026	0
bin	0.000265	0
bin	0.00027	0
bin	0.000275	0
bin	0.00028	0
bin	0.000285	0
bin	0.00029	0
bin	0.000295	0
bin	0.0003	0
bin	0.000305	0
bin	0.00031	0
bin	0.000315	0
bin	0.00032	0
bin	0.000325	0
bin	0.00033	0
bin	0.000335	0
bin	0.00034	0
bin	0.000345	0
bin	0.00035	0
bin	0.000355	0
bin	0.00036	0
bin	0.000365	0
bin	0.00037	0
bin	0.000375	0
bin	0.00038	0
bin	0.000385	0
bin	0.00039	0
bin	0.000395	0
bin	0.0004	0
bin	0.000405	0
bin	0.00041	0
bin	0.000415	0
bin	0.00042	0
bin	0.000425	0
bin	0.00043	0
bin	0.000435	0
bin	0.00044	0
bin	0.000445	0
bin	0.00045	0
bin	0.000455	0
bin	0.00046	0
bin	0.000465	1
bin	0.00047	0
bin	0.000475	0
bin	0.00048	0
bin	0.000485	0
bin	0.00049	0
bin	0.000495	0
bin	0.0005	0
bin	0.000505	0
bin	0.00051	0
bin	0.000515	0
bin	0.00052	0
bin	0.000525	0
bin	0.00053	0
statistic IoTNetwork.cameraA[0].wlan[0].mac.dcf frameSequenceNumPackets:histogram
field count 4
field mean 1.25
field stddev 0.5
field min 1
field max 2
field sum 5
field sqrsum 7
attr recordingmode histogram
attr source frameSequenceNumPackets(frameSequenceFinished)
attr title "frame sequences: number of packets"
bin	-inf	0
bin	0	0
bin	1	3
bin	2	1
bin	3	0
scalar IoTNetwork.cameraA[0].wlan[0].mac.dcf packetReceivedFromPeer:count 90
attr interpolationmode none
attr recordingmode count
attr title "packets received, count"
scalar IoTNetwork.cameraA[0].wlan[0].mac.dcf packetReceivedFromPeer:sum(packetBytes) 29734
attr interpolationmode none
attr recordingmode sum(packetBytes)
attr title "packets received, sum(packetBytes)"
scalar IoTNetwork.cameraA[0].wlan[0].mac.dcf packetReceivedFromPeerUnicast:count 47
attr interpolationmode none
attr recordingmode count
attr source ieee80211Unicast(packetReceivedFromPeer)
attr title "packets received: unicast, count"
scalar IoTNetwork.cameraA[0].wlan[0].mac.dcf packetReceivedFromPeerUnicast:sum(packetBytes) 25998
attr interpolationmode none
attr recordingmode sum(packetBytes)
attr source ieee80211Unicast(packetReceivedFromPeer)
attr title "packets received: unicast, sum(packetBytes)"
scalar IoTNetwork.cameraA[0].wlan[0].mac.dcf packetReceivedFromPeerMulticast:count 43
attr interpolationmode none
attr recordingmode count
attr source ieee80211Multicast(packetReceivedFromPeer)
attr title "packets received: multicast, count"
scalar IoTNetwork.cameraA[0].wlan[0].mac.dcf packetReceivedFromPeerMulticast:sum(packetBytes) 3736
attr interpolationmode none
attr recordingmode sum(packetBytes)
attr source ieee80211Multicast(packetReceivedFromPeer)
attr title "packets received: multicast, sum(packetBytes)"
scalar IoTNetwork.cameraA[0].wlan[0].mac.dcf packetReceivedFromPeerBroadcast:count 43
attr interpolationmode none
attr recordingmode count
attr source ieee80211Broadcast(packetReceivedFromPeer)
attr title "packets received: broadcast, count"
scalar IoTNetwork.cameraA[0].wlan[0].mac.dcf packetReceivedFromPeerBroadcast:sum(packetBytes) 3736
attr interpolationmode none
attr recordingmode sum(packetBytes)
attr source ieee80211Broadcast(packetReceivedFromPeer)
attr title "packets received: broadcast, sum(packetBytes)"
scalar IoTNetwork.cameraA[0].wlan[0].mac.dcf packetReceivedFromPeerWithRetry:count 45
attr interpolationmode none
attr recordingmode count
attr source ieee80211Retry(packetReceivedFromPeer)
attr title "packets received: with retry, count"
scalar IoTNetwork.cameraA[0].wlan[0].mac.dcf packetReceivedFromPeerWithRetry:sum(packetBytes) 25408
attr interpolationmode none
attr recordingmode sum(packetBytes)
attr source ieee80211Retry(packetReceivedFromPeer)
attr title "packets received: with retry, sum(packetBytes)"
scalar IoTNetwork.cameraA[0].wlan[0].mac.dcf packetReceivedFromPeerWithoutRetry:count 45
attr interpolationmode none
attr recordingmode count
attr source ieee80211NotRetry(packetReceivedFromPeer)
attr title "packets received: without retry, count"
scalar IoTNetwork.cameraA[0].wlan[0].mac.dcf packetReceivedFromPeerWithoutRetry:sum(packetBytes) 4326
attr interpolationmode none
attr recordingmode sum(packetBytes)
attr source ieee80211NotRetry(packetReceivedFromPeer)
attr title "packets received: without retry, sum(packetBytes)"
scalar IoTNetwork.cameraA[0].wlan[0].mac.dcf packetSentToPeer:count 50
attr interpolationmode none
attr recordingmode count
attr title "packets sent, count"
scalar IoTNetwork.cameraA[0].wlan[0].mac.dcf packetSentToPeer:sum(packetBytes) 968
attr interpolationmode none
attr recordingmode sum(packetBytes)
attr title "packets sent, sum(packetBytes)"
scalar IoTNetwork.cameraA[0].wlan[0].mac.dcf packetSentToPeerUnicast:count 47
attr interpolationmode none
attr recordingmode count
attr source ieee80211Unicast(packetSentToPeer)
attr title "packets sent: unicast, count"
scalar IoTNetwork.cameraA[0].wlan[0].mac.dcf packetSentToPeerUnicast:sum(packetBytes) 728
attr interpolationmode none
attr recordingmode sum(packetBytes)
attr source ieee80211Unicast(packetSentToPeer)
attr title "packets sent: unicast, sum(packetBytes)"
scalar IoTNetwork.cameraA[0].wlan[0].mac.dcf packetSentToPeerMulticast:count 3
attr interpolationmode none
attr recordingmode count
attr source ieee80211Multicast(packetSentToPeer)
attr title "packets sent: multicast, count"
scalar IoTNetwork.cameraA[0].wlan[0].mac.dcf packetSentToPeerMulticast:sum(packetBytes) 240
attr interpolationmode none
attr recordingmode sum(packetBytes)
attr source ieee80211Multicast(packetSentToPeer)
attr title "packets sent: multicast, sum(packetBytes)"
scalar IoTNetwork.cameraA[0].wlan[0].mac.dcf packetSentToPeerBroadcast:count 3
attr interpolationmode none
attr recordingmode count
attr source ieee80211Broadcast(packetSentToPeer)
attr title "packets sent: broadcast , count"
scalar IoTNetwork.cameraA[0].wlan[0].mac.dcf packetSentToPeerBroadcast:sum(packetBytes) 240
attr interpolationmode none
attr recordingmode sum(packetBytes)
attr source ieee80211Broadcast(packetSentToPeer)
attr title "packets sent: broadcast , sum(packetBytes)"
scalar IoTNetwork.cameraA[0].wlan[0].mac.dcf packetSentToPeerWithRetry:count 0
attr interpolationmode none
attr recordingmode count
attr source ieee80211Retry(packetSentToPeer)
attr title "packets sent: with retry, count"
scalar IoTNetwork.cameraA[0].wlan[0].mac.dcf packetSentToPeerWithRetry:sum(packetBytes) 0
attr interpolationmode none
attr recordingmode sum(packetBytes)
attr source ieee80211Retry(packetSentToPeer)
attr title "packets sent: with retry, sum(packetBytes)"
scalar IoTNetwork.cameraA[0].wlan[0].mac.dcf packetSentToPeerWithoutRetry:count 50
attr interpolationmode none
attr recordingmode count
attr source ieee80211NotRetry(packetSentToPeer)
attr title "packets sent: without retry, count"
scalar IoTNetwork.cameraA[0].wlan[0].mac.dcf packetSentToPeerWithoutRetry:sum(packetBytes) 968
attr interpolationmode none
attr recordingmode sum(packetBytes)
attr source ieee80211NotRetry(packetSentToPeer)
attr title "packets sent: without retry, sum(packetBytes)"
scalar IoTNetwork.cameraA[0].wlan[0].mac.dcf packetDrop:count 188
attr interpolationmode none
attr recordingmode count
attr source packetDropped
attr title "packet drops, count"
scalar IoTNetwork.cameraA[0].wlan[0].mac.dcf packetDrop:sum(packetBytes) 53452
attr interpolationmode none
attr recordingmode sum(packetBytes)
attr source packetDropped
attr title "packet drops, sum(packetBytes)"
scalar IoTNetwork.cameraA[0].wlan[0].mac.dcf packetDropNotAddressedToUs:count 188
attr interpolationmode none
attr recordingmode count
attr source packetDropReasonIsNotAddressedToUs(packetDropped)
attr title "packet drops: not addressed to us, count"
scalar IoTNetwork.cameraA[0].wlan[0].mac.dcf packetDropNotAddressedToUs:sum(packetBytes) 53452
attr interpolationmode none
attr recordingmode sum(packetBytes)
attr source packetDropReasonIsNotAddressedToUs(packetDropped)
attr title "packet drops: not addressed to us, sum(packetBytes)"
scalar IoTNetwork.cameraA[0].wlan[0].mac.dcf packetDropQueueOverflow:count 0
attr interpolationmode none
attr recordingmode count
attr source packetDropReasonIsQueueOverflow(packetDropped)
attr title "packet drops: queue overflow, count"
scalar IoTNetwork.cameraA[0].wlan[0].mac.dcf packetDropQueueOverflow:sum(packetBytes) 0
attr interpolationmode none
attr recordingmode sum(packetBytes)
attr source packetDropReasonIsQueueOverflow(packetDropped)
attr title "packet drops: queue overflow, sum(packetBytes)"
scalar IoTNetwork.cameraA[0].wlan[0].mac.dcf packetDropRetryLimitReached:count 0
attr interpolationmode none
attr recordingmode count
attr source packetDropReasonIsRetryLimitReached(packetDropped)
attr title "packet drops: retry limit reached, count"
scalar IoTNetwork.cameraA[0].wlan[0].mac.dcf packetDropRetryLimitReached:sum(packetBytes) 0
attr interpolationmode none
attr recordingmode sum(packetBytes)
attr source packetDropReasonIsRetryLimitReached(packetDropped)
attr title "packet drops: retry limit reached, sum(packetBytes)"
scalar IoTNetwork.cameraA[0].wlan[0].mac.dcf linkBroken:count 0
attr interpolationmode none
attr recordingmode count
attr title "link breaks, count"
par IoTNetwork.cameraA[0].wlan[0].mac.ds typename "\"inet.linklayer.ieee80211.mac.Ds\""
par IoTNetwork.cameraA[0].wlan[0].mac.ds mibModule "\"IoTNetwork.cameraA[0].wlan[0].mib\""
par IoTNetwork.cameraA[0].wlan[0].mac.rx typename "\"inet.linklayer.ieee80211.mac.Rx\""
par IoTNetwork.cameraA[0].wlan[0].mac.tx typename "\"inet.linklayer.ieee80211.mac.Tx\""
par IoTNetwork.cameraA[0].wlan[0].mac.tx rxModule "\"^.rx\""
par IoTNetwork.cameraA[0].wlan[0].mac typename "\"inet.linklayer.ieee80211.mac.Ieee80211Mac\""
par IoTNetwork.cameraA[0].wlan[0].mac interfaceTableModule "\"IoTNetwork.cameraA[0].interfaceTable\""
par IoTNetwork.cameraA[0].wlan[0].mac mibModule "\"IoTNetwork.cameraA[0].wlan[0].mib\""
par IoTNetwork.cameraA[0].wlan[0].mac modeSet "\"g(mixed)\""
attr enum a,b,g(erp),g(mixed),n(mixed-2.4Ghz),p,ac
par IoTNetwork.cameraA[0].wlan[0].mac fcsMode "\"declared\""
attr enum declared,computed
par IoTNetwork.cameraA[0].wlan[0].mac initialRadioMode "\"receiver\""
attr enum off,sleep,receiver,transmitter,transceiver
par IoTNetwork.cameraA[0].wlan[0].mac mtu 2304B
attr unit B
par IoTNetwork.cameraA[0].wlan[0].mac qosStation false
scalar IoTNetwork.cameraA[0].wlan[0].mac packetReceivedFromLower:count 412
attr interpolationmode none
attr recordingmode count
attr title "packets received from lower layer, count"
scalar IoTNetwork.cameraA[0].wlan[0].mac packetReceivedFromLower:sum(packetBytes) 134458
attr interpolationmode none
attr recordingmode sum(packetBytes)
attr title "packets received from lower layer, sum(packetBytes)"
scalar IoTNetwork.cameraA[0].wlan[0].mac packetSentToLower:count 50
attr interpolationmode none
attr recordingmode count
attr title "packets sent to lower layer, count"
scalar IoTNetwork.cameraA[0].wlan[0].mac packetSentToLower:sum(packetBytes) 968
attr interpolationmode none
attr recordingmode sum(packetBytes)
attr title "packets sent to lower layer, sum(packetBytes)"
scalar IoTNetwork.cameraA[0].wlan[0].mac packetReceivedFromUpper:count 4
attr interpolationmode none
attr recordingmode count
attr title "packets received from upper layer, count"
scalar IoTNetwork.cameraA[0].wlan[0].mac packetReceivedFromUpper:sum(packetBytes) 212
attr interpolationmode none
attr recordingmode sum(packetBytes)
attr title "packets received from upper layer, sum(packetBytes)"
scalar IoTNetwork.cameraA[0].wlan[0].mac packetSentToUpper:count 89
attr interpolationmode none
attr recordingmode count
attr title "packets sent to upper layer, count"
scalar IoTNetwork.cameraA[0].wlan[0].mac packetSentToUpper:sum(packetBytes) 27228
attr interpolationmode none
attr recordingmode sum(packetBytes)
attr title "packets sent to upper layer, sum(packetBytes)"
scalar IoTNetwork.cameraA[0].wlan[0].mac packetDrop:count 322
attr interpolationmode none
attr recordingmode count
attr source packetDropped
attr title "packet drops, count"
scalar IoTNetwork.cameraA[0].wlan[0].mac packetDrop:sum(packetBytes) 104724
attr interpolationmode none
attr recordingmode sum(packetBytes)
attr source packetDropped
attr title "packet drops, sum(packetBytes)"
scalar IoTNetwork.cameraA[0].wlan[0].mac packetDropIncorrectlyReceived:count 134
attr interpolationmode none
attr recordingmode count
attr source packetDropReasonIsIncorrectlyReceived(packetDropped)
attr title "packet drops: incorrectly received, count"
scalar IoTNetwork.cameraA[0].wlan[0].mac packetDropIncorrectlyReceived:sum(packetBytes) 51272
attr interpolationmode none
attr recordingmode sum(packetBytes)
attr source packetDropReasonIsIncorrectlyReceived(packetDropped)
attr title "packet drops: incorrectly received, sum(packetBytes)"
scalar IoTNetwork.cameraA[0].wlan[0].mac packetDropNotAddressedToUs:count 188
attr interpolationmode none
attr recordingmode count
attr source packetDropReasonIsNotAddressedToUs(packetDropped)
attr title "packet drops: not addressed to us, count"
scalar IoTNetwork.cameraA[0].wlan[0].mac packetDropNotAddressedToUs:sum(packetBytes) 53452
attr interpolationmode none
attr recordingmode sum(packetBytes)
attr source packetDropReasonIsNotAddressedToUs(packetDropped)
attr title "packet drops: not addressed to us, sum(packetBytes)"
scalar IoTNetwork.cameraA[0].wlan[0].mac packetDropQueueOverflow:count 0
attr interpolationmode none
attr recordingmode count
attr source packetDropReasonIsQueueOverflow(packetDropped)
attr title "packet drops: queue overflow, count"
scalar IoTNetwork.cameraA[0].wlan[0].mac packetDropQueueOverflow:sum(packetBytes) 0
attr interpolationmode none
attr recordingmode sum(packetBytes)
attr source packetDropReasonIsQueueOverflow(packetDropped)
attr title "packet drops: queue overflow, sum(packetBytes)"
scalar IoTNetwork.cameraA[0].wlan[0].mac packetDropRetryLimitReached:count 0
attr interpolationmode none
attr recordingmode count
attr source packetDropReasonIsRetryLimitReached(packetDropped)
attr title "packet drops: retry limit reached, count"
scalar IoTNetwork.cameraA[0].wlan[0].mac packetDropRetryLimitReached:sum(packetBytes) 0
attr interpolationmode none
attr recordingmode sum(packetBytes)
attr source packetDropReasonIsRetryLimitReached(packetDropped)
attr title "packet drops: retry limit reached, sum(packetBytes)"
scalar IoTNetwork.cameraA[0].wlan[0].mac packetDropDuplicateDetected:count 0
attr interpolationmode none
attr recordingmode count
attr source packetDropReasonIsDuplicateDetected(packetDropped)
attr title "packet drops: duplicate detected, count"
scalar IoTNetwork.cameraA[0].wlan[0].mac packetDropDuplicateDetected:sum(packetBytes) 0
attr interpolationmode none
attr recordingmode sum(packetBytes)
attr source packetDropReasonIsDuplicateDetected(packetDropped)
attr title "packet drops: duplicate detected, sum(packetBytes)"
scalar IoTNetwork.cameraA[0].wlan[0].mac packetDropOther:count 0
attr interpolationmode none
attr recordingmode count
attr source packetDropReasonIsOther(packetDropped)
attr title "packet drops: other, count"
scalar IoTNetwork.cameraA[0].wlan[0].mac packetDropOther:sum(packetBytes) 0
attr interpolationmode none
attr recordingmode sum(packetBytes)
attr source packetDropReasonIsOther(packetDropped)
attr title "packet drops: other, sum(packetBytes)"
scalar IoTNetwork.cameraA[0].wlan[0].mac linkBroken:count 0
attr interpolationmode none
attr recordingmode count
attr title "link breaks, count"
par IoTNetwork.cameraA[0].wlan[0].radio.antenna typename "\"inet.physicallayer.wireless.common.antenna.IsotropicAntenna\""
par IoTNetwork.cameraA[0].wlan[0].radio.antenna mobilityModule "\"^.^.^.mobility\""
par IoTNetwork.cameraA[0].wlan[0].radio.antenna numAntennas 1
par IoTNetwork.cameraA[0].wlan[0].radio.transmitter typename "\"inet.physicallayer.wireless.ieee80211.packetlevel.Ieee80211ScalarTransmitter\""
par IoTNetwork.cameraA[0].wlan[0].radio.transmitter preambleDuration -1s
attr unit s
par IoTNetwork.cameraA[0].wlan[0].radio.transmitter headerLength 192b
attr unit b
par IoTNetwork.cameraA[0].wlan[0].radio.transmitter bitrate 1.1e+07bps
attr unit bps
par IoTNetwork.cameraA[0].wlan[0].radio.transmitter power 0.02W
attr unit W
par IoTNetwork.cameraA[0].wlan[0].radio.transmitter centerFrequency 2.412e+09Hz
attr unit Hz
par IoTNetwork.cameraA[0].wlan[0].radio.transmitter bandwidth "nan Hz"
attr unit Hz
par IoTNetwork.cameraA[0].wlan[0].radio.transmitter codeRate 1
par IoTNetwork.cameraA[0].wlan[0].radio.transmitter modulation "\"BPSK\""
par IoTNetwork.cameraA[0].wlan[0].radio.transmitter opMode "\"g(mixed)\""
attr enum a,b,g(erp),g(mixed),n(mixed-2.4Ghz),p,ac
par IoTNetwork.cameraA[0].wlan[0].radio.transmitter bandName "\"2.4 GHz\""
attr enum "2.4 GHz,5 GHz,5 GHz (20 MHz),5 GHz (40 MHz),5 GHz (80 MHz),5 GHz (160 MHz),5.9 GHz"
par IoTNetwork.cameraA[0].wlan[0].radio.transmitter channelNumber 0
par IoTNetwork.cameraA[0].wlan[0].radio.receiver.errorModel typename "\"inet.physicallayer.wireless.ieee80211.packetlevel.errormodel.Ieee80211NistErrorModel\""
par IoTNetwork.cameraA[0].wlan[0].radio.receiver.errorModel corruptionMode "\"packet\""
attr enum packet,chunk,byte,bit
par IoTNetwork.cameraA[0].wlan[0].radio.receiver.errorModel snirMode "\"min\""
attr enum min,mean
par IoTNetwork.cameraA[0].wlan[0].radio.receiver.errorModel snirOffset 0dB
attr unit dB
par IoTNetwork.cameraA[0].wlan[0].radio.receiver typename "\"inet.physicallayer.wireless.ieee80211.packetlevel.Ieee80211ScalarReceiver\""
par IoTNetwork.cameraA[0].wlan[0].radio.receiver snirThreshold 4dB
attr unit dB
par IoTNetwork.cameraA[0].wlan[0].radio.receiver snirThresholdMode "\"min\""
attr enum min,mean
par IoTNetwork.cameraA[0].wlan[0].radio.receiver energyDetection -85dBm
attr unit dBm
par IoTNetwork.cameraA[0].wlan[0].radio.receiver sensitivity -85dBm
attr unit dBm
par IoTNetwork.cameraA[0].wlan[0].radio.receiver centerFrequency 2.412e+09Hz
attr unit Hz
par IoTNetwork.cameraA[0].wlan[0].radio.receiver bandwidth 2.2e+07Hz
attr unit Hz
par IoTNetwork.cameraA[0].wlan[0].radio.receiver modulation "\"BPSK\""
par IoTNetwork.cameraA[0].wlan[0].radio.receiver opMode "\"g(mixed)\""
attr enum a,b,g(erp),g(mixed),n(mixed-2.4Ghz),p,ac
par IoTNetwork.cameraA[0].wlan[0].radio.receiver bandName "\"2.4 GHz\""
attr enum "2.4 GHz,5 GHz,5 GHz (20 MHz),5 GHz (40 MHz),5 GHz (80 MHz),5 GHz (160 MHz),5.9 GHz"
par IoTNetwork.cameraA[0].wlan[0].radio.receiver channelNumber 0
par IoTNetwork.cameraA[0].wlan[0].radio typename "\"inet.physicallayer.wireless.ieee80211.packetlevel.Ieee80211ScalarRadio\""
par IoTNetwork.cameraA[0].wlan[0].radio radioMediumModule "\"radioMedium\""
par IoTNetwork.cameraA[0].wlan[0].radio energySourceModule "\"\""
par IoTNetwork.cameraA[0].wlan[0].radio initialRadioMode "\"off\""
attr enum off,sleep,receiver,transmitter,transceiver
par IoTNetwork.cameraA[0].wlan[0].radio switchingTimes "\"ms 0 0 0 0 0 0 0 0 0 0 0 0 0 0 0 0 0 0 0 0 0 0 0 0 0\""
par IoTNetwork.cameraA[0].wlan[0].radio sendRawBytes false
par IoTNetwork.cameraA[0].wlan[0].radio separateTransmissionParts false
par IoTNetwork.cameraA[0].wlan[0].radio separateReceptionParts false
par IoTNetwork.cameraA[0].wlan[0].radio displayCommunicationRange false
par IoTNetwork.cameraA[0].wlan[0].radio displayInterferenceRange false
par IoTNetwork.cameraA[0].wlan[0].radio centerFrequency 2.412e+09Hz
attr unit Hz
par IoTNetwork.cameraA[0].wlan[0].radio bandwidth "nan Hz"
attr unit Hz
par IoTNetwork.cameraA[0].wlan[0].radio signalAnalogRepresentation "\"scalar\""
attr enum scalar,dimensional
par IoTNetwork.cameraA[0].wlan[0].radio opMode "\"g(mixed)\""
attr enum a,b,g(erp),g(mixed),n(mixed-2.4Ghz),p,ac
par IoTNetwork.cameraA[0].wlan[0].radio bandName "\"2.4 GHz\""
attr enum "2.4 GHz,5 GHz,5 GHz (20 MHz),5 GHz (40 MHz),5 GHz (80 MHz),5 GHz (160 MHz),5.9 GHz"
par IoTNetwork.cameraA[0].wlan[0].radio channelNumber 0
par IoTNetwork.cameraA[0].wlan[0].radio crcMode "\"declared\""
attr enum declared,computed
statistic IoTNetwork.cameraA[0].wlan[0].radio radioChannel:histogram
field count 1
field mean 0
field stddev -nan
field min 0
field max 0
field sum 0
field sqrsum 0
attr interpolationmode sample-hold
attr recordingmode histogram
attr source radioChannelChanged
attr title "Radio channel"
bin	-inf	0
bin	-0.5	0
bin	-0.48	0
bin	-0.46	0
bin	-0.44	0
bin	-0.42	0
bin	-0.4	0
bin	-0.38	0
bin	-0.36	0
bin	-0.34	0
bin	-0.32	0
bin	-0.3	0
bin	-0.28	0
bin	-0.26	0
bin	-0.24	0
bin	-0.22	0
bin	-0.2	0
bin	-0.18	0
bin	-0.16	0
bin	-0.14	0
bin	-0.12	0
bin	-0.1	0
bin	-0.08	0
bin	-0.06	0
bin	-0.04	0
bin	-0.02	0
bin	0	1
bin	0.02	0
bin	0.04	0
bin	0.06	0
bin	0.08	0
bin	0.1	0
bin	0.12	0
bin	0.14	0
bin	0.16	0
bin	0.18	0
bin	0.2	0
bin	0.22	0
bin	0.24	0
bin	0.26	0
bin	0.28	0
bin	0.3	0
bin	0.32	0
bin	0.34	0
bin	0.36	0
bin	0.38	0
bin	0.4	0
bin	0.42	0
bin	0.44	0
bin	0.46	0
bin	0.48	0
bin	0.5	0
scalar IoTNetwork.cameraA[0].wlan[0].radio radioMode:count 103
attr interpolationmode sample-hold
attr recordingmode count
attr source radioModeChanged
attr title "Radio mode, count"
scalar IoTNetwork.cameraA[0].wlan[0].radio receptionState:count 1035
attr interpolationmode sample-hold
attr recordingmode count
attr source receptionStateChanged
attr title "Radio reception state, count"
scalar IoTNetwork.cameraA[0].wlan[0].radio transmissionState:count 200
attr interpolationmode sample-hold
attr recordingmode count
attr source transmissionStateChanged
attr title "Radio transmission state, count"
statistic IoTNetwork.cameraA[0].wlan[0].radio minSnir:histogram
field count 412
field mean 5492.1164411923
field stddev 8509.6212268461
field min 0.17183336405529
field max 31509.380797987
field sum 2262751.9737712
field sqrsum 42189308874.913
attr recordingmode histogram
attr source minimumSnir(packetSentToUpper)
attr title "Min SNIR"
bin	-inf	0
bin	0	140
bin	500	18
bin	1000	87
bin	1500	8
bin	2000	2
bin	2500	1
bin	3000	1
bin	3500	1
bin	4000	10
bin	4500	5
bin	5000	8
bin	5500	4
bin	6000	6
bin	6500	4
bin	7000	3
bin	7500	3
bin	8000	3
bin	8500	51
bin	9000	2
bin	9500	3
bin	10000	2
bin	10500	0
bin	11000	0
bin	11500	0
bin	12000	0
bin	12500	0
bin	13000	0
bin	13500	0
bin	14000	0
bin	14500	0
bin	15000	0
bin	15500	0
bin	16000	0
bin	16500	0
bin	17000	0
bin	17500	0
bin	18000	0
bin	18500	0
bin	19000	0
bin	19500	0
bin	20000	0
bin	20500	0
bin	21000	0
bin	21500	0
bin	22000	0
bin	22500	0
bin	23000	0
bin	23500	0
bin	24000	0
bin	24500	0
bin	25000	0
bin	25500	0
bin	26000	0
bin	26500	49
bin	27000	0
bin	27500	0
bin	28000	0
bin	28500	0
bin	29000	0
bin	29500	0
bin	30000	0
bin	30500	0
bin	31000	0
bin	31500	1
bin	32000	0
bin	32500	0
bin	33000	0
bin	33500	0
statistic IoTNetwork.cameraA[0].wlan[0].radio packetErrorRate:histogram
field count 412
field mean 0.32319724451016
field stddev 0.46641778919232
field min 0
field max 1
field sum 133.15726473819
field sqrsum 132.44728377474
attr recordingmode histogram
attr source packetErrorRate(packetSentToUpper)
attr title "Packet error rate"
bin	-inf	0
bin	0	275
bin	0.02	1
bin	0.04	0
bin	0.06	0
bin	0.08	0
bin	0.1	1
bin	0.12	0
bin	0.14	1
bin	0.16	0
bin	0.18	0
bin	0.2	0
bin	0.22	0
bin	0.24	1
bin	0.26	0
bin	0.28	0
bin	0.3	0
bin	0.32	0
bin	0.34	0
bin	0.36	0
bin	0.38	0
bin	0.4	0
bin	0.42	0
bin	0.44	0
bin	0.46	0
bin	0.48	0
bin	0.5	0
bin	0.52	0
bin	0.54	0
bin	0.56	0
bin	0.58	0
bin	0.6	0
bin	0.62	0
bin	0.64	0
bin	0.66	0
bin	0.68	1
bin	0.7	0
bin	0.72	0
bin	0.74	0
bin	0.76	0
bin	0.78	0
bin	0.8	0
bin	0.82	0
bin	0.84	0
bin	0.86	0
bin	0.88	0
bin	0.9	0
bin	0.92	1
bin	0.94	0
bin	0.96	0
bin	0.98	19
bin	1	112
bin	1.02	0
bin	1.04	0
bin	1.06	0
bin	1.08	0
bin	1.1	0
bin	1.12	0
bin	1.14	0
bin	1.16	0
bin	1.18	0
bin	1.2	0
bin	1.22	0
bin	1.24	0
bin	1.26	0
statistic IoTNetwork.cameraA[0].wlan[0].radio bitErrorRate:histogram
field count 0
field mean -nan
field stddev -nan
field min -nan
field max -nan
field sum 0
field sqrsum 0
attr recordingmode histogram
attr source bitErrorRate(packetSentToUpper)
attr title "Bit error rate"
bin	-inf	0
bin	0	0
bin	1	0
statistic IoTNetwork.cameraA[0].wlan[0].radio symbolErrorRate:histogram
field count 0
field mean -nan
field stddev -nan
field min -nan
field max -nan
field sum 0
field sqrsum 0
attr recordingmode histogram
attr source symbolErrorRate(packetSentToUpper)
attr title "Symbol error rate"
bin	-inf	0
bin	0	0
bin	1	0
par IoTNetwork.cameraA[0].wlan[0] typename "\"inet.linklayer.ieee80211.Ieee80211Interface\""
par IoTNetwork.cameraA[0].wlan[0] displayStringTextFormat "\"%a (%i)\\n%m\""
par IoTNetwork.cameraA[0].wlan[0] recordPcap false
par IoTNetwork.cameraA[0].wlan[0] numPcapRecorders 0
par IoTNetwork.cameraA[0].wlan[0] interfaceTableModule "\"IoTNetwork.cameraA[0].interfaceTable\""
par IoTNetwork.cameraA[0].wlan[0] energySourceModule "\"\""
par IoTNetwork.cameraA[0].wlan[0] opMode "\"g(mixed)\""
attr enum a,b,g(erp),g(mixed),n(mixed-2.4Ghz),p,ac
par IoTNetwork.cameraA[0].wlan[0] address "\"0A-AA-00-00-00-01\""
attr mutable ""
par IoTNetwork.cameraA[0].wlan[0] protocol "\"\""
par IoTNetwork.cameraA[0].wlan[0] bitrate 1.1e+07bps
attr unit bps
scalar IoTNetwork.cameraA[0].wlan[0] packetDropInterfaceDown:count 0
attr interpolationmode none
attr recordingmode count
attr source packetDropReasonIsInterfaceDown(packetDropped)
attr title "packet drops: interface down, count"
scalar IoTNetwork.cameraA[0].wlan[0] packetDropInterfaceDown:sum(packetBytes) 0
attr interpolationmode none
attr recordingmode sum(packetBytes)
attr source packetDropReasonIsInterfaceDown(packetDropped)
attr title "packet drops: interface down, sum(packetBytes)"
scalar IoTNetwork.cameraA[0].wlan[0] packetDropNoCarrier:count 0
attr interpolationmode none
attr recordingmode count
attr source packetDropReasonIsNoCarrier(packetDropped)
attr title "packet drops: no carrier, count"
scalar IoTNetwork.cameraA[0].wlan[0] packetDropNoCarrier:sum(packetBytes) 0
attr interpolationmode none
attr recordingmode sum(packetBytes)
attr source packetDropReasonIsNoCarrier(packetDropped)
attr title "packet drops: no carrier, sum(packetBytes)"
par IoTNetwork.cameraA[0].ipv4.transportIn.channel typename "\"ned.IdealChannel\""
par IoTNetwork.cameraA[0].ipv4.up.out[0].channel typename "\"ned.IdealChannel\""
par IoTNetwork.cameraA[0].ipv4.lp.out[2].channel typename "\"ned.IdealChannel\""
par IoTNetwork.cameraA[0].ipv4.ifIn.channel typename "\"ned.IdealChannel\""
par IoTNetwork.cameraA[0].ipv4.configurator typename "\"inet.networklayer.configurator.ipv4.Ipv4NodeConfigurator\""
par IoTNetwork.cameraA[0].ipv4.configurator interfaceTableModule "\"IoTNetwork.cameraA[0].interfaceTable\""
par IoTNetwork.cameraA[0].ipv4.configurator routingTableModule "\"IoTNetwork.cameraA[0].ipv4.routingTable\""
par IoTNetwork.cameraA[0].ipv4.configurator networkConfiguratorModule "\"configurator\""
par IoTNetwork.cameraA[0].ipv4.configurator configureRoutingTable true
par IoTNetwork.cameraA[0].ipv4.routingTable typename "\"inet.networklayer.ipv4.Ipv4RoutingTable\""
par IoTNetwork.cameraA[0].ipv4.routingTable interfaceTableModule "\"IoTNetwork.cameraA[0].interfaceTable\""
par IoTNetwork.cameraA[0].ipv4.routingTable routerId "\"auto\""
par IoTNetwork.cameraA[0].ipv4.routingTable netmaskRoutes "\"*\""
par IoTNetwork.cameraA[0].ipv4.routingTable forwarding true
par IoTNetwork.cameraA[0].ipv4.routingTable multicastForwarding false
par IoTNetwork.cameraA[0].ipv4.routingTable useAdminDist false
par IoTNetwork.cameraA[0].ipv4.routingTable routingFile "\"\""
par IoTNetwork.cameraA[0].ipv4.natTable typename "\"inet.networklayer.ipv4.Ipv4NatTable\""
par IoTNetwork.cameraA[0].ipv4.natTable networkProtocolModule "\"^.ip\""
par IoTNetwork.cameraA[0].ipv4.natTable config "<config/> at content:1"
par IoTNetwork.cameraA[0].ipv4.up typename "\"inet.common.MessageDispatcher\""
par IoTNetwork.cameraA[0].ipv4.up displayStringTextFormat "\"processed %p pk (%l)\""
par IoTNetwork.cameraA[0].ipv4.up forwardServiceRegistration true
par IoTNetwork.cameraA[0].ipv4.up forwardProtocolRegistration true
par IoTNetwork.cameraA[0].ipv4.igmp typename "\"inet.networklayer.ipv4.Igmpv2\""
par IoTNetwork.cameraA[0].ipv4.igmp interfaceTableModule "\"IoTNetwork.cameraA[0].interfaceTable\""
par IoTNetwork.cameraA[0].ipv4.igmp routingTableModule "\"IoTNetwork.cameraA[0].ipv4.routingTable\""
par IoTNetwork.cameraA[0].ipv4.igmp crcMode "\"declared\""
attr enum declared,computed
par IoTNetwork.cameraA[0].ipv4.igmp enabled true
par IoTNetwork.cameraA[0].ipv4.igmp robustnessVariable 2
par IoTNetwork.cameraA[0].ipv4.igmp queryInterval 125s
attr unit s
par IoTNetwork.cameraA[0].ipv4.igmp queryResponseInterval 10s
attr unit s
par IoTNetwork.cameraA[0].ipv4.igmp groupMembershipInterval 260s
attr unit s
par IoTNetwork.cameraA[0].ipv4.igmp otherQuerierPresentInterval 255s
attr unit s
par IoTNetwork.cameraA[0].ipv4.igmp startupQueryInterval 31.25s
attr unit s
par IoTNetwork.cameraA[0].ipv4.igmp startupQueryCount 2
par IoTNetwork.cameraA[0].ipv4.igmp lastMemberQueryInterval 1s
attr unit s
par IoTNetwork.cameraA[0].ipv4.igmp lastMemberQueryCount 2
par IoTNetwork.cameraA[0].ipv4.igmp unsolicitedReportInterval 10s
attr unit s
par IoTNetwork.cameraA[0].ipv4.icmp typename "\"inet.networklayer.ipv4.Icmp\""
par IoTNetwork.cameraA[0].ipv4.icmp interfaceTableModule "\"IoTNetwork.cameraA[0].interfaceTable\""
par IoTNetwork.cameraA[0].ipv4.icmp routingTableModule "\"IoTNetwork.cameraA[0].ipv4.routingTable\""
par IoTNetwork.cameraA[0].ipv4.icmp crcMode "\"declared\""
attr enum declared,computed
attr mutable ""
par IoTNetwork.cameraA[0].ipv4.icmp quoteLength 8B
attr mutable ""
attr unit B
par IoTNetwork.cameraA[0].ipv4.mp typename "\"inet.common.MessageDispatcher\""
par IoTNetwork.cameraA[0].ipv4.mp displayStringTextFormat "\"processed %p pk (%l)\""
par IoTNetwork.cameraA[0].ipv4.mp forwardServiceRegistration true
par IoTNetwork.cameraA[0].ipv4.mp forwardProtocolRegistration true
par IoTNetwork.cameraA[0].ipv4.ip typename "\"inet.networklayer.ipv4.Ipv4\""
par IoTNetwork.cameraA[0].ipv4.ip interfaceTableModule "\"IoTNetwork.cameraA[0].interfaceTable\""
par IoTNetwork.cameraA[0].ipv4.ip routingTableModule "\"IoTNetwork.cameraA[0].ipv4.routingTable\""
par IoTNetwork.cameraA[0].ipv4.ip arpModule "\"IoTNetwork.cameraA[0].ipv4.arp\""
par IoTNetwork.cameraA[0].ipv4.ip icmpModule "\"IoTNetwork.cameraA[0].ipv4.icmp\""
par IoTNetwork.cameraA[0].ipv4.ip crcMode "\"declared\""
attr enum declared,computed
par IoTNetwork.cameraA[0].ipv4.ip timeToLive 32
par IoTNetwork.cameraA[0].ipv4.ip multicastTimeToLive 32
par IoTNetwork.cameraA[0].ipv4.ip fragmentTimeout 60s
attr unit s
par IoTNetwork.cameraA[0].ipv4.ip limitedBroadcast false
par IoTNetwork.cameraA[0].ipv4.ip directBroadcastInterfaces "\"\""
scalar IoTNetwork.cameraA[0].ipv4.ip packetDropAddressResolutionFailed:count 0
attr interpolationmode none
attr recordingmode count
attr source packetDropReasonIsAddressResolutionFailed(packetDropped)
attr title "packet drop: address resolution failed, count"
scalar IoTNetwork.cameraA[0].ipv4.ip packetDropAddressResolutionFailed:sum(packetBytes) 0
attr interpolationmode none
attr recordingmode sum(packetBytes)
attr source packetDropReasonIsAddressResolutionFailed(packetDropped)
attr title "packet drop: address resolution failed, sum(packetBytes)"
scalar IoTNetwork.cameraA[0].ipv4.ip packetDropHopLimitReached:count 0
attr interpolationmode none
attr recordingmode count
attr source packetDropReasonIsHopLimitReached(packetDropped)
attr title "packet drop: hop limit reached, count"
scalar IoTNetwork.cameraA[0].ipv4.ip packetDropHopLimitReached:sum(packetBytes) 0
attr interpolationmode none
attr recordingmode sum(packetBytes)
attr source packetDropReasonIsHopLimitReached(packetDropped)
attr title "packet drop: hop limit reached, sum(packetBytes)"
scalar IoTNetwork.cameraA[0].ipv4.ip packetDropForwardingDisabled:count 0
attr interpolationmode none
attr recordingmode count
attr source packetDropReasonIsForwardingDisabled(packetDropped)
attr title "packet drop: forwarding disabled, count"
scalar IoTNetwork.cameraA[0].ipv4.ip packetDropForwardingDisabled:sum(packetBytes) 0
attr interpolationmode none
attr recordingmode sum(packetBytes)
attr source packetDropReasonIsForwardingDisabled(packetDropped)
attr title "packet drop: forwarding disabled, sum(packetBytes)"
scalar IoTNetwork.cameraA[0].ipv4.ip packetDropNoInterfaceFound:count 0
attr interpolationmode none
attr recordingmode count
attr source packetDropReasonIsNoInterfaceFound(packetDropped)
attr title "packet drop: no interface found, count"
scalar IoTNetwork.cameraA[0].ipv4.ip packetDropNoInterfaceFound:sum(packetBytes) 0
attr interpolationmode none
attr recordingmode sum(packetBytes)
attr source packetDropReasonIsNoInterfaceFound(packetDropped)
attr title "packet drop: no interface found, sum(packetBytes)"
scalar IoTNetwork.cameraA[0].ipv4.ip packetDropNoRouteFound:count 0
attr interpolationmode none
attr recordingmode count
attr source packetDropReasonIsNoRouteFound(packetDropped)
attr title "packet drop: no route found, count"
scalar IoTNetwork.cameraA[0].ipv4.ip packetDropNoRouteFound:sum(packetBytes) 0
attr interpolationmode none
attr recordingmode sum(packetBytes)
attr source packetDropReasonIsNoRouteFound(packetDropped)
attr title "packet drop: no route found, sum(packetBytes)"
scalar IoTNetwork.cameraA[0].ipv4.ip packetDropUndefined:count 0
attr interpolationmode none
attr recordingmode count
attr source packetDropReasonIsUndefined(packetDropped)
attr title "packet drop: undefined, count"
scalar IoTNetwork.cameraA[0].ipv4.ip packetDropUndefined:sum(packetBytes) 0
attr interpolationmode none
attr recordingmode sum(packetBytes)
attr source packetDropReasonIsUndefined(packetDropped)
attr title "packet drop: undefined, sum(packetBytes)"
par IoTNetwork.cameraA[0].ipv4.arp typename "\"inet.networklayer.arp.ipv4.Arp\""
par IoTNetwork.cameraA[0].ipv4.arp interfaceTableModule "\"IoTNetwork.cameraA[0].interfaceTable\""
par IoTNetwork.cameraA[0].ipv4.arp routingTableModule "\"IoTNetwork.cameraA[0].ipv4.routingTable\""
par IoTNetwork.cameraA[0].ipv4.arp retryTimeout 1s
attr unit s
par IoTNetwork.cameraA[0].ipv4.arp retryCount 3
par IoTNetwork.cameraA[0].ipv4.arp cacheTimeout 120s
attr unit s
par IoTNetwork.cameraA[0].ipv4.arp proxyArpInterfaces "\"\""
scalar IoTNetwork.cameraA[0].ipv4.arp arpResolutionFailed:count 0
attr recordingmode count
attr title "ARP failed resolutions, count"
scalar IoTNetwork.cameraA[0].ipv4.arp arpResolutionCompleted:count 1
attr recordingmode count
attr title "ARP completed resolutions, count"
scalar IoTNetwork.cameraA[0].ipv4.arp arpResolutionInitiated:count 1
attr recordingmode count
attr title "ARP initiated resolutions, count"
scalar IoTNetwork.cameraA[0].ipv4.arp arpReplySent:count 0
attr recordingmode count
attr source arpReplySent
attr title "ARP replies sent, count"
scalar IoTNetwork.cameraA[0].ipv4.arp arpReplySent:sum(packetBytes) 0
attr recordingmode sum(packetBytes)
attr source arpReplySent
attr title "ARP replies sent, sum(packetBytes)"
scalar IoTNetwork.cameraA[0].ipv4.arp arpRequestSent:count 1
attr recordingmode count
attr source arpRequestSent
attr title "ARP request sent, count"
scalar IoTNetwork.cameraA[0].ipv4.arp arpRequestSent:sum(packetBytes) 28
attr recordingmode sum(packetBytes)
attr source arpRequestSent
attr title "ARP request sent, sum(packetBytes)"
par IoTNetwork.cameraA[0].ipv4.lp typename "\"inet.common.MessageDispatcher\""
par IoTNetwork.cameraA[0].ipv4.lp displayStringTextFormat "\"processed %p pk (%l)\""
par IoTNetwork.cameraA[0].ipv4.lp forwardServiceRegistration true
par IoTNetwork.cameraA[0].ipv4.lp forwardProtocolRegistration true
par IoTNetwork.cameraA[0].ipv4 typename "\"inet.networklayer.ipv4.Ipv4NetworkLayer\""
par IoTNetwork.cameraA[0].ipv4 forwarding true
par IoTNetwork.cameraA[0].ipv4 multicastForwarding false
par IoTNetwork.cameraA[0].ipv4 interfaceTableModule "\"IoTNetwork.cameraA[0].interfaceTable\""
par IoTNetwork.cameraA[0].ipv4 displayStringTextFormat "\"%i\""
par IoTNetwork.cameraA[0].nl typename "\"inet.common.MessageDispatcher\""
par IoTNetwork.cameraA[0].nl displayStringTextFormat "\"processed %p pk (%l)\""
par IoTNetwork.cameraA[0].nl forwardServiceRegistration true
par IoTNetwork.cameraA[0].nl forwardProtocolRegistration true
par IoTNetwork.cameraA[0].udp typename "\"inet.transportlayer.udp.Udp\""
par IoTNetwork.cameraA[0].udp interfaceTableModule "\"IoTNetwork.cameraA[0].interfaceTable\""
par IoTNetwork.cameraA[0].udp icmpModule "\"^.ipv4.icmp\""
par IoTNetwork.cameraA[0].udp icmpv6Module "\"^.ipv6.icmpv6\""
par IoTNetwork.cameraA[0].udp crcMode "\"declared\""
attr enum disabled,declared,computed
par IoTNetwork.cameraA[0].udp defaultMulticastLoop true
scalar IoTNetwork.cameraA[0].udp packetReceived:count 86
attr interpolationmode none
attr recordingmode count
attr source packetReceived
attr title "packets received, count"
scalar IoTNetwork.cameraA[0].udp packetReceived:sum(packetBytes) 24712
attr interpolationmode none
attr recordingmode sum(packetBytes)
attr source packetReceived
attr title "packets received, sum(packetBytes)"
scalar IoTNetwork.cameraA[0].udp packetSent:count 3
attr interpolationmode none
attr recordingmode count
attr source packetSent
attr title "packets sent, count"
scalar IoTNetwork.cameraA[0].udp packetSent:sum(packetBytes) 92
attr interpolationmode none
attr recordingmode sum(packetBytes)
attr source packetSent
attr title "packets sent, sum(packetBytes)"
scalar IoTNetwork.cameraA[0].udp passedUpPk:count 86
attr interpolationmode none
attr recordingmode count
attr source packetSentToUpper
attr title "packets passed up, count"
scalar IoTNetwork.cameraA[0].udp droppedPkWrongPort:count 0
attr interpolationmode none
attr recordingmode count
attr source packetDropReasonIsNoPortFound(packetDropped)
attr title "packets dropped (wrong port), count"
scalar IoTNetwork.cameraA[0].udp droppedPkBadChecksum:count 0
attr interpolationmode none
attr recordingmode count
attr source packetDropReasonIsIncorrectlyReceived(packetDropped)
attr title "packets dropped (checksum error), count"
par IoTNetwork.cameraA[0].tcp typename "\"inet.transportlayer.tcp.Tcp\""
par IoTNetwork.cameraA[0].tcp crcMode "\"declared\""
attr enum declared,computed
par IoTNetwork.cameraA[0].tcp advertisedWindow 7504
par IoTNetwork.cameraA[0].tcp delayedAcksEnabled false
par IoTNetwork.cameraA[0].tcp nagleEnabled true
par IoTNetwork.cameraA[0].tcp limitedTransmitEnabled false
par IoTNetwork.cameraA[0].tcp increasedIWEnabled false
par IoTNetwork.cameraA[0].tcp sackSupport false
par IoTNetwork.cameraA[0].tcp windowScalingSupport false
par IoTNetwork.cameraA[0].tcp windowScalingFactor -1
par IoTNetwork.cameraA[0].tcp timestampSupport false
par IoTNetwork.cameraA[0].tcp mss 536
par IoTNetwork.cameraA[0].tcp msl 120s
attr unit s
par IoTNetwork.cameraA[0].tcp tcpAlgorithmClass "\"TcpReno\""
attr enum TcpVegas,TcpWestwood,TcpNewReno,TcpReno,TcpTahoe,TcpNoCongestionControl
par IoTNetwork.cameraA[0].tcp useDataNotification false
par IoTNetwork.cameraA[0].tcp dupthresh 3
par IoTNetwork.cameraA[0].tcp initialSsthresh 4294967295
par IoTNetwork.cameraA[0].tcp stopOperationExtraTime 0s
attr unit s
par IoTNetwork.cameraA[0].tcp stopOperationTimeout 2s
attr unit s
par IoTNetwork.cameraA[0].tcp ecnWillingness false
par IoTNetwork.cameraA[0].tcp dctcpGamma 0.0625
par IoTNetwork.cameraA[0].tn typename "\"inet.common.MessageDispatcher\""
par IoTNetwork.cameraA[0].tn displayStringTextFormat "\"processed %p pk (%l)\""
par IoTNetwork.cameraA[0].tn forwardServiceRegistration true
par IoTNetwork.cameraA[0].tn forwardProtocolRegistration true
par IoTNetwork.cameraA[0].app[0] typename "\"inet.applications.udpapp.UdpSink\""
par IoTNetwork.cameraA[0].app[0] interfaceTableModule "\"IoTNetwork.cameraA[0].interfaceTable\""
par IoTNetwork.cameraA[0].app[0] startTime 0s
attr unit s
par IoTNetwork.cameraA[0].app[0] stopTime -1s
attr unit s
par IoTNetwork.cameraA[0].app[0] localPort 5001
par IoTNetwork.cameraA[0].app[0] receiveBroadcast false
par IoTNetwork.cameraA[0].app[0] multicastGroup "\"\""
par IoTNetwork.cameraA[0].app[0] multicastSources "\"\""
par IoTNetwork.cameraA[0].app[0] stopOperationExtraTime -1s
attr unit s
par IoTNetwork.cameraA[0].app[0] stopOperationTimeout 2s
attr unit s
scalar IoTNetwork.cameraA[0].app[0] packetReceived:count 45
attr interpolationmode none
[...]
bin	0.12	1
bin	0.14	0
bin	0.16	0
bin	0.18	0
bin	0.2	0
bin	0.22	0
bin	0.24	0
bin	0.26	1
bin	0.28	0
bin	0.3	0
bin	0.32	1
bin	0.34	0
bin	0.36	0
bin	0.38	0
bin	0.4	0
bin	0.42	0
bin	0.44	0
bin	0.46	0
bin	0.48	0
bin	0.5	0
bin	0.52	0
bin	0.54	0
bin	0.56	0
bin	0.58	0
bin	0.6	0
bin	0.62	0
bin	0.64	0
bin	0.66	0
bin	0.68	0
bin	0.7	1
bin	0.72	0
bin	0.74	0
bin	0.76	0
bin	0.78	1
bin	0.8	0
bin	0.82	1
bin	0.84	0
bin	0.86	1
bin	0.88	0
bin	0.9	0
bin	0.92	1
bin	0.94	1
bin	0.96	0
bin	0.98	8
bin	1	92
bin	1.02	0
bin	1.04	0
bin	1.06	0
bin	1.08	0
bin	1.1	0
bin	1.12	0
bin	1.14	0
bin	1.16	0
bin	1.18	0
bin	1.2	0
bin	1.22	0
bin	1.24	0
bin	1.26	0
statistic IoTNetwork.watchJ[2].wlan[0].radio bitErrorRate:histogram
field count 0
field mean -nan
field stddev -nan
field min -nan
field max -nan
field sum 0
field sqrsum 0
attr recordingmode histogram
attr source bitErrorRate(packetSentToUpper)
attr title "Bit error rate"
bin	-inf	0
bin	0	0
bin	1	0
statistic IoTNetwork.watchJ[2].wlan[0].radio symbolErrorRate:histogram
field count 0
field mean -nan
field stddev -nan
field min -nan
field max -nan
field sum 0
field sqrsum 0
attr recordingmode histogram
attr source symbolErrorRate(packetSentToUpper)
attr title "Symbol error rate"
bin	-inf	0
bin	0	0
bin	1	0
par IoTNetwork.watchJ[2].wlan[0] typename "\"inet.linklayer.ieee80211.Ieee80211Interface\""
par IoTNetwork.watchJ[2].wlan[0] displayStringTextFormat "\"%a (%i)\\n%m\""
par IoTNetwork.watchJ[2].wlan[0] recordPcap false
par IoTNetwork.watchJ[2].wlan[0] numPcapRecorders 0
par IoTNetwork.watchJ[2].wlan[0] interfaceTableModule "\"IoTNetwork.watchJ[2].interfaceTable\""
par IoTNetwork.watchJ[2].wlan[0] energySourceModule "\"\""
par IoTNetwork.watchJ[2].wlan[0] opMode "\"g(mixed)\""
attr enum a,b,g(erp),g(mixed),n(mixed-2.4Ghz),p,ac
par IoTNetwork.watchJ[2].wlan[0] address "\"0A-AA-00-00-00-32\""
attr mutable ""
par IoTNetwork.watchJ[2].wlan[0] protocol "\"\""
par IoTNetwork.watchJ[2].wlan[0] bitrate 1.1e+07bps
attr unit bps
scalar IoTNetwork.watchJ[2].wlan[0] packetDropInterfaceDown:count 0
attr interpolationmode none
attr recordingmode count
attr source packetDropReasonIsInterfaceDown(packetDropped)
attr title "packet drops: interface down, count"
scalar IoTNetwork.watchJ[2].wlan[0] packetDropInterfaceDown:sum(packetBytes) 0
attr interpolationmode none
attr recordingmode sum(packetBytes)
attr source packetDropReasonIsInterfaceDown(packetDropped)
attr title "packet drops: interface down, sum(packetBytes)"
scalar IoTNetwork.watchJ[2].wlan[0] packetDropNoCarrier:count 0
attr interpolationmode none
attr recordingmode count
attr source packetDropReasonIsNoCarrier(packetDropped)
attr title "packet drops: no carrier, count"
scalar IoTNetwork.watchJ[2].wlan[0] packetDropNoCarrier:sum(packetBytes) 0
attr interpolationmode none
attr recordingmode sum(packetBytes)
attr source packetDropReasonIsNoCarrier(packetDropped)
attr title "packet drops: no carrier, sum(packetBytes)"
par IoTNetwork.watchJ[2].ipv4.transportIn.channel typename "\"ned.IdealChannel\""
par IoTNetwork.watchJ[2].ipv4.up.out[0].channel typename "\"ned.IdealChannel\""
par IoTNetwork.watchJ[2].ipv4.lp.out[2].channel typename "\"ned.IdealChannel\""
par IoTNetwork.watchJ[2].ipv4.ifIn.channel typename "\"ned.IdealChannel\""
par IoTNetwork.watchJ[2].ipv4.configurator typename "\"inet.networklayer.configurator.ipv4.Ipv4NodeConfigurator\""
par IoTNetwork.watchJ[2].ipv4.configurator interfaceTableModule "\"IoTNetwork.watchJ[2].interfaceTable\""
par IoTNetwork.watchJ[2].ipv4.configurator routingTableModule "\"IoTNetwork.watchJ[2].ipv4.routingTable\""
par IoTNetwork.watchJ[2].ipv4.configurator networkConfiguratorModule "\"configurator\""
par IoTNetwork.watchJ[2].ipv4.configurator configureRoutingTable true
par IoTNetwork.watchJ[2].ipv4.routingTable typename "\"inet.networklayer.ipv4.Ipv4RoutingTable\""
par IoTNetwork.watchJ[2].ipv4.routingTable interfaceTableModule "\"IoTNetwork.watchJ[2].interfaceTable\""
par IoTNetwork.watchJ[2].ipv4.routingTable routerId "\"auto\""
par IoTNetwork.watchJ[2].ipv4.routingTable netmaskRoutes "\"*\""
par IoTNetwork.watchJ[2].ipv4.routingTable forwarding true
par IoTNetwork.watchJ[2].ipv4.routingTable multicastForwarding false
par IoTNetwork.watchJ[2].ipv4.routingTable useAdminDist false
par IoTNetwork.watchJ[2].ipv4.routingTable routingFile "\"\""
par IoTNetwork.watchJ[2].ipv4.natTable typename "\"inet.networklayer.ipv4.Ipv4NatTable\""
par IoTNetwork.watchJ[2].ipv4.natTable networkProtocolModule "\"^.ip\""
par IoTNetwork.watchJ[2].ipv4.natTable config "<config/> at content:1"
par IoTNetwork.watchJ[2].ipv4.up typename "\"inet.common.MessageDispatcher\""
par IoTNetwork.watchJ[2].ipv4.up displayStringTextFormat "\"processed %p pk (%l)\""
par IoTNetwork.watchJ[2].ipv4.up forwardServiceRegistration true
par IoTNetwork.watchJ[2].ipv4.up forwardProtocolRegistration true
par IoTNetwork.watchJ[2].ipv4.igmp typename "\"inet.networklayer.ipv4.Igmpv2\""
par IoTNetwork.watchJ[2].ipv4.igmp interfaceTableModule "\"IoTNetwork.watchJ[2].interfaceTable\""
par IoTNetwork.watchJ[2].ipv4.igmp routingTableModule "\"IoTNetwork.watchJ[2].ipv4.routingTable\""
par IoTNetwork.watchJ[2].ipv4.igmp crcMode "\"declared\""
attr enum declared,computed
par IoTNetwork.watchJ[2].ipv4.igmp enabled true
par IoTNetwork.watchJ[2].ipv4.igmp robustnessVariable 2
par IoTNetwork.watchJ[2].ipv4.igmp queryInterval 125s
attr unit s
par IoTNetwork.watchJ[2].ipv4.igmp queryResponseInterval 10s
attr unit s
par IoTNetwork.watchJ[2].ipv4.igmp groupMembershipInterval 260s
attr unit s
par IoTNetwork.watchJ[2].ipv4.igmp otherQuerierPresentInterval 255s
attr unit s
par IoTNetwork.watchJ[2].ipv4.igmp startupQueryInterval 31.25s
attr unit s
par IoTNetwork.watchJ[2].ipv4.igmp startupQueryCount 2
par IoTNetwork.watchJ[2].ipv4.igmp lastMemberQueryInterval 1s
attr unit s
par IoTNetwork.watchJ[2].ipv4.igmp lastMemberQueryCount 2
par IoTNetwork.watchJ[2].ipv4.igmp unsolicitedReportInterval 10s
attr unit s
par IoTNetwork.watchJ[2].ipv4.icmp typename "\"inet.networklayer.ipv4.Icmp\""
par IoTNetwork.watchJ[2].ipv4.icmp interfaceTableModule "\"IoTNetwork.watchJ[2].interfaceTable\""
par IoTNetwork.watchJ[2].ipv4.icmp routingTableModule "\"IoTNetwork.watchJ[2].ipv4.routingTable\""
par IoTNetwork.watchJ[2].ipv4.icmp crcMode "\"declared\""
attr enum declared,computed
attr mutable ""
par IoTNetwork.watchJ[2].ipv4.icmp quoteLength 8B
attr mutable ""
attr unit B
par IoTNetwork.watchJ[2].ipv4.mp typename "\"inet.common.MessageDispatcher\""
par IoTNetwork.watchJ[2].ipv4.mp displayStringTextFormat "\"processed %p pk (%l)\""
par IoTNetwork.watchJ[2].ipv4.mp forwardServiceRegistration true
par IoTNetwork.watchJ[2].ipv4.mp forwardProtocolRegistration true
par IoTNetwork.watchJ[2].ipv4.ip typename "\"inet.networklayer.ipv4.Ipv4\""
par IoTNetwork.watchJ[2].ipv4.ip interfaceTableModule "\"IoTNetwork.watchJ[2].interfaceTable\""
par IoTNetwork.watchJ[2].ipv4.ip routingTableModule "\"IoTNetwork.watchJ[2].ipv4.routingTable\""
par IoTNetwork.watchJ[2].ipv4.ip arpModule "\"IoTNetwork.watchJ[2].ipv4.arp\""
par IoTNetwork.watchJ[2].ipv4.ip icmpModule "\"IoTNetwork.watchJ[2].ipv4.icmp\""
par IoTNetwork.watchJ[2].ipv4.ip crcMode "\"declared\""
attr enum declared,computed
par IoTNetwork.watchJ[2].ipv4.ip timeToLive 32
par IoTNetwork.watchJ[2].ipv4.ip multicastTimeToLive 32
par IoTNetwork.watchJ[2].ipv4.ip fragmentTimeout 60s
attr unit s
par IoTNetwork.watchJ[2].ipv4.ip limitedBroadcast false
par IoTNetwork.watchJ[2].ipv4.ip directBroadcastInterfaces "\"\""
scalar IoTNetwork.watchJ[2].ipv4.ip packetDropAddressResolutionFailed:count 0
attr interpolationmode none
attr recordingmode count
attr source packetDropReasonIsAddressResolutionFailed(packetDropped)
attr title "packet drop: address resolution failed, count"
scalar IoTNetwork.watchJ[2].ipv4.ip packetDropAddressResolutionFailed:sum(packetBytes) 0
attr interpolationmode none
attr recordingmode sum(packetBytes)
attr source packetDropReasonIsAddressResolutionFailed(packetDropped)
attr title "packet drop: address resolution failed, sum(packetBytes)"
scalar IoTNetwork.watchJ[2].ipv4.ip packetDropHopLimitReached:count 0
attr interpolationmode none
attr recordingmode count
attr source packetDropReasonIsHopLimitReached(packetDropped)
attr title "packet drop: hop limit reached, count"
scalar IoTNetwork.watchJ[2].ipv4.ip packetDropHopLimitReached:sum(packetBytes) 0
attr interpolationmode none
attr recordingmode sum(packetBytes)
attr source packetDropReasonIsHopLimitReached(packetDropped)
attr title "packet drop: hop limit reached, sum(packetBytes)"
scalar IoTNetwork.watchJ[2].ipv4.ip packetDropForwardingDisabled:count 0
attr interpolationmode none
attr recordingmode count
attr source packetDropReasonIsForwardingDisabled(packetDropped)
attr title "packet drop: forwarding disabled, count"
scalar IoTNetwork.watchJ[2].ipv4.ip packetDropForwardingDisabled:sum(packetBytes) 0
attr interpolationmode none
attr recordingmode sum(packetBytes)
attr source packetDropReasonIsForwardingDisabled(packetDropped)
attr title "packet drop: forwarding disabled, sum(packetBytes)"
scalar IoTNetwork.watchJ[2].ipv4.ip packetDropNoInterfaceFound:count 0
attr interpolationmode none
attr recordingmode count
attr source packetDropReasonIsNoInterfaceFound(packetDropped)
attr title "packet drop: no interface found, count"
scalar IoTNetwork.watchJ[2].ipv4.ip packetDropNoInterfaceFound:sum(packetBytes) 0
attr interpolationmode none
attr recordingmode sum(packetBytes)
attr source packetDropReasonIsNoInterfaceFound(packetDropped)
attr title "packet drop: no interface found, sum(packetBytes)"
scalar IoTNetwork.watchJ[2].ipv4.ip packetDropNoRouteFound:count 0
attr interpolationmode none
attr recordingmode count
attr source packetDropReasonIsNoRouteFound(packetDropped)
attr title "packet drop: no route found, count"
scalar IoTNetwork.watchJ[2].ipv4.ip packetDropNoRouteFound:sum(packetBytes) 0
attr interpolationmode none
attr recordingmode sum(packetBytes)
attr source packetDropReasonIsNoRouteFound(packetDropped)
attr title "packet drop: no route found, sum(packetBytes)"
scalar IoTNetwork.watchJ[2].ipv4.ip packetDropUndefined:count 0
attr interpolationmode none
attr recordingmode count
attr source packetDropReasonIsUndefined(packetDropped)
attr title "packet drop: undefined, count"
scalar IoTNetwork.watchJ[2].ipv4.ip packetDropUndefined:sum(packetBytes) 0
attr interpolationmode none
attr recordingmode sum(packetBytes)
attr source packetDropReasonIsUndefined(packetDropped)
attr title "packet drop: undefined, sum(packetBytes)"
par IoTNetwork.watchJ[2].ipv4.arp typename "\"inet.networklayer.arp.ipv4.Arp\""
par IoTNetwork.watchJ[2].ipv4.arp interfaceTableModule "\"IoTNetwork.watchJ[2].interfaceTable\""
par IoTNetwork.watchJ[2].ipv4.arp routingTableModule "\"IoTNetwork.watchJ[2].ipv4.routingTable\""
par IoTNetwork.watchJ[2].ipv4.arp retryTimeout 1s
attr unit s
par IoTNetwork.watchJ[2].ipv4.arp retryCount 3
par IoTNetwork.watchJ[2].ipv4.arp cacheTimeout 120s
attr unit s
par IoTNetwork.watchJ[2].ipv4.arp proxyArpInterfaces "\"\""
scalar IoTNetwork.watchJ[2].ipv4.arp arpResolutionFailed:count 0
attr recordingmode count
attr title "ARP failed resolutions, count"
scalar IoTNetwork.watchJ[2].ipv4.arp arpResolutionCompleted:count 0
attr recordingmode count
attr title "ARP completed resolutions, count"
scalar IoTNetwork.watchJ[2].ipv4.arp arpResolutionInitiated:count 0
attr recordingmode count
attr title "ARP initiated resolutions, count"
scalar IoTNetwork.watchJ[2].ipv4.arp arpReplySent:count 0
attr recordingmode count
attr source arpReplySent
attr title "ARP replies sent, count"
scalar IoTNetwork.watchJ[2].ipv4.arp arpReplySent:sum(packetBytes) 0
attr recordingmode sum(packetBytes)
attr source arpReplySent
attr title "ARP replies sent, sum(packetBytes)"
scalar IoTNetwork.watchJ[2].ipv4.arp arpRequestSent:count 0
attr recordingmode count
attr source arpRequestSent
attr title "ARP request sent, count"
scalar IoTNetwork.watchJ[2].ipv4.arp arpRequestSent:sum(packetBytes) 0
attr recordingmode sum(packetBytes)
attr source arpRequestSent
attr title "ARP request sent, sum(packetBytes)"
par IoTNetwork.watchJ[2].ipv4.lp typename "\"inet.common.MessageDispatcher\""
par IoTNetwork.watchJ[2].ipv4.lp displayStringTextFormat "\"processed %p pk (%l)\""
par IoTNetwork.watchJ[2].ipv4.lp forwardServiceRegistration true
par IoTNetwork.watchJ[2].ipv4.lp forwardProtocolRegistration true
par IoTNetwork.watchJ[2].ipv4 typename "\"inet.networklayer.ipv4.Ipv4NetworkLayer\""
par IoTNetwork.watchJ[2].ipv4 forwarding true
par IoTNetwork.watchJ[2].ipv4 multicastForwarding false
par IoTNetwork.watchJ[2].ipv4 interfaceTableModule "\"IoTNetwork.watchJ[2].interfaceTable\""
par IoTNetwork.watchJ[2].ipv4 displayStringTextFormat "\"%i\""
par IoTNetwork.watchJ[2].nl typename "\"inet.common.MessageDispatcher\""
par IoTNetwork.watchJ[2].nl displayStringTextFormat "\"processed %p pk (%l)\""
par IoTNetwork.watchJ[2].nl forwardServiceRegistration true
par IoTNetwork.watchJ[2].nl forwardProtocolRegistration true
par IoTNetwork.watchJ[2].udp typename "\"inet.transportlayer.udp.Udp\""
par IoTNetwork.watchJ[2].udp interfaceTableModule "\"IoTNetwork.watchJ[2].interfaceTable\""
par IoTNetwork.watchJ[2].udp icmpModule "\"^.ipv4.icmp\""
par IoTNetwork.watchJ[2].udp icmpv6Module "\"^.ipv6.icmpv6\""
par IoTNetwork.watchJ[2].udp crcMode "\"declared\""
attr enum disabled,declared,computed
par IoTNetwork.watchJ[2].udp defaultMulticastLoop true
scalar IoTNetwork.watchJ[2].udp packetReceived:count 64
attr interpolationmode none
attr recordingmode count
attr source packetReceived
attr title "packets received, count"
scalar IoTNetwork.watchJ[2].udp packetReceived:sum(packetBytes) 2048
attr interpolationmode none
attr recordingmode sum(packetBytes)
attr source packetReceived
attr title "packets received, sum(packetBytes)"
scalar IoTNetwork.watchJ[2].udp packetSent:count 3
attr interpolationmode none
attr recordingmode count
attr source packetSent
attr title "packets sent, count"
scalar IoTNetwork.watchJ[2].udp packetSent:sum(packetBytes) 96
attr interpolationmode none
attr recordingmode sum(packetBytes)
attr source packetSent
attr title "packets sent, sum(packetBytes)"
scalar IoTNetwork.watchJ[2].udp passedUpPk:count 64
attr interpolationmode none
attr recordingmode count
attr source packetSentToUpper
attr title "packets passed up, count"
scalar IoTNetwork.watchJ[2].udp droppedPkWrongPort:count 0
attr interpolationmode none
attr recordingmode count
attr source packetDropReasonIsNoPortFound(packetDropped)
attr title "packets dropped (wrong port), count"
scalar IoTNetwork.watchJ[2].udp droppedPkBadChecksum:count 0
attr interpolationmode none
attr recordingmode count
attr source packetDropReasonIsIncorrectlyReceived(packetDropped)
attr title "packets dropped (checksum error), count"
par IoTNetwork.watchJ[2].tcp typename "\"inet.transportlayer.tcp.Tcp\""
par IoTNetwork.watchJ[2].tcp crcMode "\"declared\""
attr enum declared,computed
par IoTNetwork.watchJ[2].tcp advertisedWindow 7504
par IoTNetwork.watchJ[2].tcp delayedAcksEnabled false
par IoTNetwork.watchJ[2].tcp nagleEnabled true
par IoTNetwork.watchJ[2].tcp limitedTransmitEnabled false
par IoTNetwork.watchJ[2].tcp increasedIWEnabled false
par IoTNetwork.watchJ[2].tcp sackSupport false
par IoTNetwork.watchJ[2].tcp windowScalingSupport false
par IoTNetwork.watchJ[2].tcp windowScalingFactor -1
par IoTNetwork.watchJ[2].tcp timestampSupport false
par IoTNetwork.watchJ[2].tcp mss 536
par IoTNetwork.watchJ[2].tcp msl 120s
attr unit s
par IoTNetwork.watchJ[2].tcp tcpAlgorithmClass "\"TcpReno\""
attr enum TcpVegas,TcpWestwood,TcpNewReno,TcpReno,TcpTahoe,TcpNoCongestionControl
par IoTNetwork.watchJ[2].tcp useDataNotification false
par IoTNetwork.watchJ[2].tcp dupthresh 3
par IoTNetwork.watchJ[2].tcp initialSsthresh 4294967295
par IoTNetwork.watchJ[2].tcp stopOperationExtraTime 0s
attr unit s
par IoTNetwork.watchJ[2].tcp stopOperationTimeout 2s
attr unit s
par IoTNetwork.watchJ[2].tcp ecnWillingness false
par IoTNetwork.watchJ[2].tcp dctcpGamma 0.0625
par IoTNetwork.watchJ[2].tn typename "\"inet.common.MessageDispatcher\""
par IoTNetwork.watchJ[2].tn displayStringTextFormat "\"processed %p pk (%l)\""
par IoTNetwork.watchJ[2].tn forwardServiceRegistration true
par IoTNetwork.watchJ[2].tn forwardProtocolRegistration true
par IoTNetwork.watchJ[2].at typename "\"inet.common.MessageDispatcher\""
par IoTNetwork.watchJ[2].at displayStringTextFormat "\"processed %p pk (%l)\""
par IoTNetwork.watchJ[2].at forwardServiceRegistration true
par IoTNetwork.watchJ[2].at forwardProtocolRegistration true
par IoTNetwork.watchJ[2].aodv typename "\"inet.routing.aodv.Aodv\""
par IoTNetwork.watchJ[2].aodv routingTableModule "\"^.ipv4.routingTable\""
par IoTNetwork.watchJ[2].aodv interfaceTableModule "\"IoTNetwork.watchJ[2].interfaceTable\""
par IoTNetwork.watchJ[2].aodv networkProtocolModule "\"^.ipv4.ip\""
par IoTNetwork.watchJ[2].aodv askGratuitousRREP false
par IoTNetwork.watchJ[2].aodv useHelloMessages false
par IoTNetwork.watchJ[2].aodv useLocalRepair false
par IoTNetwork.watchJ[2].aodv destinationOnlyFlag false
par IoTNetwork.watchJ[2].aodv udpPort 654
par IoTNetwork.watchJ[2].aodv interface "\"wlan0\""
par IoTNetwork.watchJ[2].aodv maxPeriodicJitter 0.125s
attr unit s
par IoTNetwork.watchJ[2].aodv periodicJitter "uniform(0s, maxPeriodicJitter)"
attr unit s
par IoTNetwork.watchJ[2].aodv maxJitter 0.005s
attr unit s
par IoTNetwork.watchJ[2].aodv jitter "uniform(0ms, maxJitter)"
attr unit s
par IoTNetwork.watchJ[2].aodv helloInterval 0.5s
attr unit s
par IoTNetwork.watchJ[2].aodv allowedHelloLoss 2
par IoTNetwork.watchJ[2].aodv activeRouteTimeout 3s
attr unit s
par IoTNetwork.watchJ[2].aodv netDiameter 35
par IoTNetwork.watchJ[2].aodv nodeTraversalTime 0.04s
attr unit s
par IoTNetwork.watchJ[2].aodv rerrRatelimit 10
par IoTNetwork.watchJ[2].aodv rreqRetries 3
par IoTNetwork.watchJ[2].aodv rreqRatelimit 10
par IoTNetwork.watchJ[2].aodv timeoutBuffer 2
par IoTNetwork.watchJ[2].aodv ttlStart 2
par IoTNetwork.watchJ[2].aodv ttlIncrement 2
par IoTNetwork.watchJ[2].aodv ttlThreshold 7
par IoTNetwork.watchJ[2].aodv localAddTTL 2
par IoTNetwork.watchJ[2].aodv myRouteTimeout 6s
attr unit s
par IoTNetwork.watchJ[2].aodv deletePeriod 5s
attr unit s
par IoTNetwork.watchJ[2].aodv blacklistTimeout 8.4s
attr unit s
par IoTNetwork.watchJ[2].aodv netTraversalTime 2.8s
attr unit s
par IoTNetwork.watchJ[2].aodv nextHopWait 0.05s
attr unit s
par IoTNetwork.watchJ[2].aodv pathDiscoveryTime 5.6s
attr unit s
par IoTNetwork.watchJ[2].puf typename "\"PufModule\""
par IoTNetwork.watchJ[2].pufAuthApp typename "\"PufAuthApp\""
par IoTNetwork.watchJ[2].pufAuthApp authInterval 2s
attr unit s
par IoTNetwork.watchJ[2].pufAuthApp authStartTime 8s
attr unit s
scalar IoTNetwork.watchJ[2].pufAuthApp puf_auth_success 60
scalar IoTNetwork.watchJ[2].pufAuthApp puf_auth_failed 62
scalar IoTNetwork.watchJ[2].pufAuthApp puf_enroll_adhoc 15
par IoTNetwork.watchJ[2] typename "\"IoTNode\""
par IoTNetwork.watchJ[2] hasStatus false
par IoTNetwork.watchJ[2] osgModel "\"\""
par IoTNetwork.watchJ[2] osgModelColor "\"\""
par IoTNetwork.watchJ[2] canvasImage "\"\""
par IoTNetwork.watchJ[2] canvasImageColor "\"\""
par IoTNetwork.watchJ[2] recordPcap false
par IoTNetwork.watchJ[2] numPcapRecorders 0
par IoTNetwork.watchJ[2] numLoInterfaces 1
par IoTNetwork.watchJ[2] numWlanInterfaces 1
par IoTNetwork.watchJ[2] numEthInterfaces 0
par IoTNetwork.watchJ[2] numPppInterfaces 0
par IoTNetwork.watchJ[2] numTunInterfaces 0
par IoTNetwork.watchJ[2] numVirtInterfaces 0
par IoTNetwork.watchJ[2] fcsMode "\"declared\""
attr enum declared,computed
par IoTNetwork.watchJ[2] hasIpv4 true
par IoTNetwork.watchJ[2] hasIpv6 false
par IoTNetwork.watchJ[2] hasGn false
par IoTNetwork.watchJ[2] forwarding true
par IoTNetwork.watchJ[2] multicastForwarding false
par IoTNetwork.watchJ[2] hasUdp true
par IoTNetwork.watchJ[2] hasTcp true
par IoTNetwork.watchJ[2] hasSctp false
par IoTNetwork.watchJ[2] numApps 0
par IoTNetwork typename "\"IoTNetwork\""

