file 10840178 1777029922                                        
version 3
run General-0-20260424-13:25:16-302164
attr configname General
attr datetime 20260424-13:25:16
attr datetimef 20260424-132516
attr experiment General
attr inifile omnetpp.ini
attr iterationvars ""
attr iterationvarsd ""
attr iterationvarsf ""
attr measurement ""
attr network IoTNetwork
attr processid 302164
attr repetition 0
attr replication #0
attr resultdir results
attr runnumber 0
attr seedset 0
config **.cmdenv-log-level info
config sim-time-limit 100s
config network IoTNetwork
config sim-time-limit 100s
config ned-path ./:/home/ubuntuy/omnetpp-6.0.3/samples/inet4.5/src
config **.constraintAreaMinX 0m
config **.constraintAreaMinY 0m
config **.constraintAreaMinZ 0m
config **.constraintAreaMaxX 1200m
config **.constraintAreaMaxY 900m
config **.constraintAreaMaxZ 0m
config *.configurator.addStaticRoutes false
config *.configurator.addDefaultRoutes false
config *.configurator.addSubnetRoutes false
config *.configurator.config "xmldoc(\"config.xml\")"
config **.wlan[*].radio.radioMediumModule "\"radioMedium\""
config **.wlan[*].radio.transmitter.power 20mW
config **.wlan[*].bitrate 11Mbps
config **.aodv.activeRouteTimeout 3s
config **.aodv.deletePeriod 5s
config **.aodv.helloInterval 0.5s
config **.aodv.allowedHelloLoss 2
config **.aodv.rreqRetries 3
config **.aodv.rreqRatelimit 10
config **.aodv.ttlStart 2
config **.aodv.ttlIncrement 2
config **.aodv.ttlThreshold 7
config **.aodv.jitterPar 0.005s
config **.aodv.displayBubbles true
config **.pufAuthApp.authStartTime 8s
config **.pufAuthApp.authInterval 2s
config **.pufAuthApp.cmdenv-log-level trace
config *.cameraA[0].mobility.initialX 114m
config *.cameraA[0].mobility.initialY 54m
config *.cameraA[0].mobility.initialZ 0m
config *.cameraA[1].mobility.initialX 221m
config *.cameraA[1].mobility.initialY 219m
config *.cameraA[1].mobility.initialZ 0m
config *.phoneA[0].mobility.initialX 196m
config *.phoneA[0].mobility.initialY 63m
config *.phoneA[0].mobility.initialZ 0m
config *.phoneA[1].mobility.initialX 152m
config *.phoneA[1].mobility.initialY 190m
config *.phoneA[1].mobility.initialZ 0m
config *.watchA[0].mobility.initialX 248m
config *.watchA[0].mobility.initialY 82m
config *.watchA[0].mobility.initialZ 0m
config *.cameraB[0].mobility.initialX 524m
config *.cameraB[0].mobility.initialY 100m
config *.cameraB[0].mobility.initialZ 0m
config *.cameraB[1].mobility.initialX 481m
config *.cameraB[1].mobility.initialY 240m
config *.cameraB[1].mobility.initialZ 0m
config *.cameraB[2].mobility.initialX 340m
config *.cameraB[2].mobility.initialY 180m
config *.cameraB[2].mobility.initialZ 0m
config *.watchB[0].mobility.initialX 437m
config *.watchB[0].mobility.initialY 103m
config *.watchB[0].mobility.initialZ 0m
config *.watchB[1].mobility.initialX 507m
config *.watchB[1].mobility.initialY 56m
config *.watchB[1].mobility.initialZ 0m
config *.phoneC[0].mobility.initialX 769m
config *.phoneC[0].mobility.initialY 184m
config *.phoneC[0].mobility.initialZ 0m
config *.phoneC[1].mobility.initialX 716m
config *.phoneC[1].mobility.initialY 238m
config *.phoneC[1].mobility.initialZ 0m
config *.watchC[0].mobility.initialX 797m
config *.watchC[0].mobility.initialY 100m
config *.watchC[0].mobility.initialZ 0m
config *.watchC[1].mobility.initialX 793m
config *.watchC[1].mobility.initialY 64m
config *.watchC[1].mobility.initialZ 0m
config *.watchC[2].mobility.initialX 840m
config *.watchC[2].mobility.initialY 162m
config *.watchC[2].mobility.initialZ 0m
config *.cameraD[0].mobility.initialX 1123m
config *.cameraD[0].mobility.initialY 67m
config *.cameraD[0].mobility.initialZ 0m
config *.phoneD[0].mobility.initialX 1012m
config *.phoneD[0].mobility.initialY 176m
config *.phoneD[0].mobility.initialZ 0m
config *.phoneD[1].mobility.initialX 983m
config *.phoneD[1].mobility.initialY 92m
config *.phoneD[1].mobility.initialZ 0m
config *.phoneD[2].mobility.initialX 1096m
config *.phoneD[2].mobility.initialY 122m
config *.phoneD[2].mobility.initialZ 0m
config *.watchD[0].mobility.initialX 983m
config *.watchD[0].mobility.initialY 91m
config *.watchD[0].mobility.initialZ 0m
config *.cameraE[0].mobility.initialX 165m
config *.cameraE[0].mobility.initialY 500m
config *.cameraE[0].mobility.initialZ 0m
config *.cameraE[1].mobility.initialX 221m
config *.cameraE[1].mobility.initialY 419m
config *.cameraE[1].mobility.initialZ 0m
config *.phoneE[0].mobility.initialX 225m
config *.phoneE[0].mobility.initialY 494m
config *.phoneE[0].mobility.initialZ 0m
config *.phoneE[1].mobility.initialX 217m
config *.phoneE[1].mobility.initialY 418m
config *.phoneE[1].mobility.initialZ 0m
config *.watchE[0].mobility.initialX 189m
config *.watchE[0].mobility.initialY 459m
config *.watchE[0].mobility.initialZ 0m
config *.phoneF[0].mobility.initialX 366m
config *.phoneF[0].mobility.initialY 389m
config *.phoneF[0].mobility.initialZ 0m
config *.watchF[0].mobility.initialX 423m
config *.watchF[0].mobility.initialY 364m
config *.watchF[0].mobility.initialZ 0m
config *.watchF[1].mobility.initialX 559m
config *.watchF[1].mobility.initialY 424m
config *.watchF[1].mobility.initialZ 0m
config *.watchF[2].mobility.initialX 514m
config *.watchF[2].mobility.initialY 394m
config *.watchF[2].mobility.initialZ 0m
config *.watchF[3].mobility.initialX 518m
config *.watchF[3].mobility.initialY 453m
config *.watchF[3].mobility.initialZ 0m
config *.cameraG[0].mobility.initialX 778m
config *.cameraG[0].mobility.initialY 558m
config *.cameraG[0].mobility.initialZ 0m
config *.cameraG[1].mobility.initialX 725m
config *.cameraG[1].mobility.initialY 512m
config *.cameraG[1].mobility.initialZ 0m
config *.phoneG[0].mobility.initialX 819m
config *.phoneG[0].mobility.initialY 523m
config *.phoneG[0].mobility.initialZ 0m
config *.phoneG[1].mobility.initialX 832m
config *.phoneG[1].mobility.initialY 417m
config *.phoneG[1].mobility.initialZ 0m
config *.watchG[0].mobility.initialX 714m
config *.watchG[0].mobility.initialY 366m
config *.watchG[0].mobility.initialZ 0m
config *.cameraH[0].mobility.initialX 1118m
config *.cameraH[0].mobility.initialY 513m
config *.cameraH[0].mobility.initialZ 0m
config *.watchH[0].mobility.initialX 974m
config *.watchH[0].mobility.initialY 479m
config *.watchH[0].mobility.initialZ 0m
config *.watchH[1].mobility.initialX 957m
config *.watchH[1].mobility.initialY 384m
config *.watchH[1].mobility.initialZ 0m
config *.watchH[2].mobility.initialX 1104m
config *.watchH[2].mobility.initialY 498m
config *.watchH[2].mobility.initialZ 0m
config *.watchH[3].mobility.initialX 1098m
config *.watchH[3].mobility.initialY 548m
config *.watchH[3].mobility.initialZ 0m
config *.cameraI[0].mobility.initialX 151m
config *.cameraI[0].mobility.initialY 634m
config *.cameraI[0].mobility.initialZ 0m
config *.cameraI[1].mobility.initialX 187m
config *.cameraI[1].mobility.initialY 713m
config *.cameraI[1].mobility.initialZ 0m
config *.cameraI[2].mobility.initialX 102m
config *.cameraI[2].mobility.initialY 733m
config *.cameraI[2].mobility.initialZ 0m
config *.phoneI[0].mobility.initialX 74m
config *.phoneI[0].mobility.initialY 675m
config *.phoneI[0].mobility.initialZ 0m
config *.watchI[0].mobility.initialX 204m
config *.watchI[0].mobility.initialY 832m
config *.watchI[0].mobility.initialZ 0m
config *.cameraJ[0].mobility.initialX 346m
config *.cameraJ[0].mobility.initialY 729m
config *.cameraJ[0].mobility.initialZ 0m
config *.cameraJ[1].mobility.initialX 444m
config *.cameraJ[1].mobility.initialY 668m
config *.cameraJ[1].mobility.initialZ 0m
config *.watchJ[0].mobility.initialX 472m
config *.watchJ[0].mobility.initialY 714m
config *.watchJ[0].mobility.initialZ 0m
config *.watchJ[1].mobility.initialX 398m
config *.watchJ[1].mobility.initialY 738m
config *.watchJ[1].mobility.initialZ 0m
config *.watchJ[2].mobility.initialX 334m
config *.watchJ[2].mobility.initialY 716m
config *.watchJ[2].mobility.initialZ 0m
config **.camera*[*].mobility.typename StationaryMobility
config **.watch*[*].mobility.typename StationaryMobility
config **.phone*[*].mobility.typename RandomWaypointMobility
config **.phone*[*].mobility.speed "uniform(0.5mps, 2mps)"
config **.phone*[*].mobility.waitTime "uniform(1s, 5s)"
config *.phoneA[0].numApps 1
config *.phoneA[0].app[0].typename UdpBasicApp
config *.phoneA[0].app[0].destAddresses "\"cameraB[0]\""
config *.phoneA[0].app[0].destPort 5000
config *.phoneA[0].app[0].messageLength 512B
config *.phoneA[0].app[0].sendInterval 2s
config *.phoneA[0].app[0].startTime 10s
config *.cameraB[0].numApps 1
config *.cameraB[0].app[0].typename UdpSink
config *.cameraB[0].app[0].localPort 5000
config *.phoneC[0].numApps 1
config *.phoneC[0].app[0].typename UdpBasicApp
config *.phoneC[0].app[0].destAddresses "\"cameraA[0]\""
config *.phoneC[0].app[0].destPort 5001
config *.phoneC[0].app[0].messageLength 512B
config *.phoneC[0].app[0].sendInterval 2s
config *.phoneC[0].app[0].startTime 10s
config *.cameraA[0].numApps 1
config *.cameraA[0].app[0].typename UdpSink
config *.cameraA[0].app[0].localPort 5001
config *.phoneD[0].numApps 1
config *.phoneD[0].app[0].typename UdpBasicApp
config *.phoneD[0].app[0].destAddresses "\"cameraE[0]\""
config *.phoneD[0].app[0].destPort 5002
config *.phoneD[0].app[0].messageLength 512B
config *.phoneD[0].app[0].sendInterval 2s
config *.phoneD[0].app[0].startTime 10s
config *.cameraE[0].numApps 1
config *.cameraE[0].app[0].typename UdpSink
config *.cameraE[0].app[0].localPort 5002
config *.cameraA[1].numApps 0
config *.phoneA[1].numApps 0
config *.watchA[0].numApps 0
config *.cameraB[1].numApps 0
config *.cameraB[2].numApps 0
config *.watchB[0].numApps 0
config *.watchB[1].numApps 0
config *.phoneC[1].numApps 0
config *.watchC[0].numApps 0
config *.watchC[1].numApps 0
config *.watchC[2].numApps 0
config *.cameraD[0].numApps 0
config *.phoneD[1].numApps 0
config *.phoneD[2].numApps 0
config *.watchD[0].numApps 0
config *.cameraE[1].numApps 0
config *.phoneE[0].numApps 0
config *.phoneE[1].numApps 0
config *.watchE[0].numApps 0
config *.phoneF[0].numApps 0
config *.watchF[0].numApps 0
config *.watchF[1].numApps 0
config *.watchF[2].numApps 0
config *.watchF[3].numApps 0
config *.cameraG[0].numApps 0
config *.cameraG[1].numApps 0
config *.phoneG[0].numApps 0
config *.phoneG[1].numApps 0
config *.watchG[0].numApps 0
config *.cameraH[0].numApps 0
config *.watchH[0].numApps 0
config *.watchH[1].numApps 0
config *.watchH[2].numApps 0
config *.watchH[3].numApps 0
config *.cameraI[0].numApps 0
config *.cameraI[1].numApps 0
config *.cameraI[2].numApps 0
config *.phoneI[0].numApps 0
config *.watchI[0].numApps 0
config *.cameraJ[0].numApps 0
config *.cameraJ[1].numApps 0
config *.watchJ[0].numApps 0
config *.watchJ[1].numApps 0
config *.watchJ[2].numApps 0

vector 0 IoTNetwork.cameraA[0].wlan[0].mac.dcf frameSequenceActive:vector ETV
attr autoWarmupFilter false
attr interpolationmode sample-hold
attr recordingmode vector
attr source warmup(count(frameSequenceStarted)-count(frameSequenceFinished))
attr title "frame sequence active"
vector 1 IoTNetwork.cameraA[0].wlan[0].mac.dcf.channelAccess.pendingQueue queueLength:vector ETV
attr autoWarmupFilter false
attr interpolationmode sample-hold
attr recordingmode vector
attr source "warmup(atomic(constant0(packetPushEnded) + count(packetPushStarted) - count(packetPulled) - count(packetRemoved) - count(packetDropped)))"
attr title "queue length"
attr unit pk
vector 2 IoTNetwork.cameraA[0].wlan[0].mac.dcf.channelAccess.pendingQueue queueBitLength:vector ETV
attr autoWarmupFilter false
attr interpolationmode sample-hold
attr recordingmode vector
attr source "warmup(atomic(constant0(packetPushEnded) + sum(packetLength(packetPushStarted)) - sum(packetLength(packetPulled)) - sum(packetLength(packetRemoved)) - sum(packetLength(packetDropped))))"
attr title "queue bit length"
attr unit b
vector 3 IoTNetwork.cameraA[0].wlan[0].mac.dcf.channelAccess.inProgressFrames queueLength:vector ETV
attr autoWarmupFilter false
attr interpolationmode sample-hold
attr recordingmode vector
attr source "warmup(count(packetEnqueued) - count(packetDequeued))"
attr title "queue length"
vector 4 IoTNetwork.cameraA[0].wlan[0].mac.dcf.channelAccess.contention backoffActive:vector ETV
attr autoWarmupFilter false
attr interpolationmode sample-hold
attr recordingmode vector
attr source warmup(count(backoffStarted)-count(backoffStopped))
attr title "backoff active"
vector 5 IoTNetwork.cameraA[0].udp passedUpPk:vector(count) ETV
attr interpolationmode none
attr recordingmode vector(count)
attr source packetSentToUpper
attr title "packets passed up, count"
vector 6 IoTNetwork.cameraA[0].udp droppedPkWrongPort:vector(count) ETV
attr interpolationmode none
attr recordingmode vector(count)
attr source packetDropReasonIsNoPortFound(packetDropped)
attr title "packets dropped (wrong port), count"
vector 7 IoTNetwork.cameraA[0].udp droppedPkBadChecksum:vector(count) ETV
attr interpolationmode none
attr recordingmode vector(count)
attr source packetDropReasonIsIncorrectlyReceived(packetDropped)
attr title "packets dropped (checksum error), count"
vector 8 IoTNetwork.cameraA[1].wlan[0].mac.dcf frameSequenceActive:vector ETV
attr autoWarmupFilter false
attr interpolationmode sample-hold
attr recordingmode vector
attr source warmup(count(frameSequenceStarted)-count(frameSequenceFinished))
attr title "frame sequence active"
vector 9 IoTNetwork.cameraA[1].wlan[0].mac.dcf.channelAccess.pendingQueue queueLength:vector ETV
attr autoWarmupFilter false
attr interpolationmode sample-hold
attr recordingmode vector
attr source "warmup(atomic(constant0(packetPushEnded) + count(packetPushStarted) - count(packetPulled) - count(packetRemoved) - count(packetDropped)))"
attr title "queue length"
attr unit pk
vector 10 IoTNetwork.cameraA[1].wlan[0].mac.dcf.channelAccess.pendingQueue queueBitLength:vector ETV
attr autoWarmupFilter false
attr interpolationmode sample-hold
attr recordingmode vector
attr source "warmup(atomic(constant0(packetPushEnded) + sum(packetLength(packetPushStarted)) - sum(packetLength(packetPulled)) - sum(packetLength(packetRemoved)) - sum(packetLength(packetDropped))))"
attr title "queue bit length"
attr unit b
vector 11 IoTNetwork.cameraA[1].wlan[0].mac.dcf.channelAccess.inProgressFrames queueLength:vector ETV
attr autoWarmupFilter false
attr interpolationmode sample-hold
attr recordingmode vector
attr source "warmup(count(packetEnqueued) - count(packetDequeued))"
attr title "queue length"
vector 12 IoTNetwork.cameraA[1].wlan[0].mac.dcf.channelAccess.contention backoffActive:vector ETV
attr autoWarmupFilter false
attr interpolationmode sample-hold
attr recordingmode vector
attr source warmup(count(backoffStarted)-count(backoffStopped))
attr title "backoff active"
vector 13 IoTNetwork.cameraA[1].udp passedUpPk:vector(count) ETV
attr interpolationmode none
attr recordingmode vector(count)
attr source packetSentToUpper
attr title "packets passed up, count"
vector 14 IoTNetwork.cameraA[1].udp droppedPkWrongPort:vector(count) ETV
attr interpolationmode none
attr recordingmode vector(count)
attr source packetDropReasonIsNoPortFound(packetDropped)
attr title "packets dropped (wrong port), count"
vector 15 IoTNetwork.cameraA[1].udp droppedPkBadChecksum:vector(count) ETV
attr interpolationmode none
attr recordingmode vector(count)
attr source packetDropReasonIsIncorrectlyReceived(packetDropped)
attr title "packets dropped (checksum error), count"
vector 16 IoTNetwork.phoneA[0].wlan[0].mac.dcf frameSequenceActive:vector ETV
attr autoWarmupFilter false
attr interpolationmode sample-hold
attr recordingmode vector
attr source warmup(count(frameSequenceStarted)-count(frameSequenceFinished))
attr title "frame sequence active"
vector 17 IoTNetwork.phoneA[0].wlan[0].mac.dcf.channelAccess.pendingQueue queueLength:vector ETV
attr autoWarmupFilter false
attr interpolationmode sample-hold
attr recordingmode vector
attr source "warmup(atomic(constant0(packetPushEnded) + count(packetPushStarted) - count(packetPulled) - count(packetRemoved) - count(packetDropped)))"
attr title "queue length"
attr unit pk
vector 18 IoTNetwork.phoneA[0].wlan[0].mac.dcf.channelAccess.pendingQueue queueBitLength:vector ETV
attr autoWarmupFilter false
attr interpolationmode sample-hold
attr recordingmode vector
attr source "warmup(atomic(constant0(packetPushEnded) + sum(packetLength(packetPushStarted)) - sum(packetLength(packetPulled)) - sum(packetLength(packetRemoved)) - sum(packetLength(packetDropped))))"
attr title "queue bit length"
attr unit b
vector 19 IoTNetwork.phoneA[0].wlan[0].mac.dcf.channelAccess.inProgressFrames queueLength:vector ETV
attr autoWarmupFilter false
attr interpolationmode sample-hold
attr recordingmode vector
attr source "warmup(count(packetEnqueued) - count(packetDequeued))"
attr title "queue length"
vector 20 IoTNetwork.phoneA[0].wlan[0].mac.dcf.channelAccess.contention backoffActive:vector ETV
attr autoWarmupFilter false
attr interpolationmode sample-hold
attr recordingmode vector
attr source warmup(count(backoffStarted)-count(backoffStopped))
attr title "backoff active"
vector 21 IoTNetwork.phoneA[0].udp passedUpPk:vector(count) ETV
attr interpolationmode none
attr recordingmode vector(count)
attr source packetSentToUpper
attr title "packets passed up, count"
vector 22 IoTNetwork.phoneA[0].udp droppedPkWrongPort:vector(count) ETV
attr interpolationmode none
attr recordingmode vector(count)
attr source packetDropReasonIsNoPortFound(packetDropped)
attr title "packets dropped (wrong port), count"
vector 23 IoTNetwork.phoneA[0].udp droppedPkBadChecksum:vector(count) ETV
attr interpolationmode none
attr recordingmode vector(count)
attr source packetDropReasonIsIncorrectlyReceived(packetDropped)
attr title "packets dropped (checksum error), count"
vector 24 IoTNetwork.phoneA[1].wlan[0].mac.dcf frameSequenceActive:vector ETV
attr autoWarmupFilter false
attr interpolationmode sample-hold
attr recordingmode vector
attr source warmup(count(frameSequenceStarted)-count(frameSequenceFinished))
attr title "frame sequence active"
vector 25 IoTNetwork.phoneA[1].wlan[0].mac.dcf.channelAccess.pendingQueue queueLength:vector ETV
attr autoWarmupFilter false
attr interpolationmode sample-hold
attr recordingmode vector
attr source "warmup(atomic(constant0(packetPushEnded) + count(packetPushStarted) - count(packetPulled) - count(packetRemoved) - count(packetDropped)))"
attr title "queue length"
attr unit pk
vector 26 IoTNetwork.phoneA[1].wlan[0].mac.dcf.channelAccess.pendingQueue queueBitLength:vector ETV
attr autoWarmupFilter false
attr interpolationmode sample-hold
attr recordingmode vector
attr source "warmup(atomic(constant0(packetPushEnded) + sum(packetLength(packetPushStarted)) - sum(packetLength(packetPulled)) - sum(packetLength(packetRemoved)) - sum(packetLength(packetDropped))))"
attr title "queue bit length"
attr unit b
vector 27 IoTNetwork.phoneA[1].wlan[0].mac.dcf.channelAccess.inProgressFrames queueLength:vector ETV
attr autoWarmupFilter false
attr interpolationmode sample-hold
attr recordingmode vector
attr source "warmup(count(packetEnqueued) - count(packetDequeued))"
attr title "queue length"
vector 28 IoTNetwork.phoneA[1].wlan[0].mac.dcf.channelAccess.contention backoffActive:vector ETV
attr autoWarmupFilter false
attr interpolationmode sample-hold
attr recordingmode vector
attr source warmup(count(backoffStarted)-count(backoffStopped))
attr title "backoff active"
vector 29 IoTNetwork.phoneA[1].udp passedUpPk:vector(count) ETV
attr interpolationmode none
attr recordingmode vector(count)
attr source packetSentToUpper
attr title "packets passed up, count"
vector 30 IoTNetwork.phoneA[1].udp droppedPkWrongPort:vector(count) ETV
attr interpolationmode none
attr recordingmode vector(count)
attr source packetDropReasonIsNoPortFound(packetDropped)
attr title "packets dropped (wrong port), count"
vector 31 IoTNetwork.phoneA[1].udp droppedPkBadChecksum:vector(count) ETV
attr interpolationmode none
attr recordingmode vector(count)
attr source packetDropReasonIsIncorrectlyReceived(packetDropped)
attr title "packets dropped (checksum error), count"
vector 32 IoTNetwork.watchA[0].wlan[0].mac.dcf frameSequenceActive:vector ETV
attr autoWarmupFilter false
attr interpolationmode sample-hold
attr recordingmode vector
attr source warmup(count(frameSequenceStarted)-count(frameSequenceFinished))
attr title "frame sequence active"
vector 33 IoTNetwork.watchA[0].wlan[0].mac.dcf.channelAccess.pendingQueue queueLength:vector ETV
attr autoWarmupFilter false
attr interpolationmode sample-hold
attr recordingmode vector
attr source "warmup(atomic(constant0(packetPushEnded) + count(packetPushStarted) - count(packetPulled) - count(packetRemoved) - count(packetDropped)))"
attr title "queue length"
attr unit pk
vector 34 IoTNetwork.watchA[0].wlan[0].mac.dcf.channelAccess.pendingQueue queueBitLength:vector ETV
attr autoWarmupFilter false
attr interpolationmode sample-hold
attr recordingmode vector
attr source "warmup(atomic(constant0(packetPushEnded) + sum(packetLength(packetPushStarted)) - sum(packetLength(packetPulled)) - sum(packetLength(packetRemoved)) - sum(packetLength(packetDropped))))"
attr title "queue bit length"
attr unit b
vector 35 IoTNetwork.watchA[0].wlan[0].mac.dcf.channelAccess.inProgressFrames queueLength:vector ETV
attr autoWarmupFilter false
attr interpolationmode sample-hold
attr recordingmode vector
attr source "warmup(count(packetEnqueued) - count(packetDequeued))"
attr title "queue length"
vector 36 IoTNetwork.watchA[0].wlan[0].mac.dcf.channelAccess.contention backoffActive:vector ETV
attr autoWarmupFilter false
attr interpolationmode sample-hold
attr recordingmode vector
attr source warmup(count(backoffStarted)-count(backoffStopped))
attr title "backoff active"
vector 37 IoTNetwork.watchA[0].udp passedUpPk:vector(count) ETV
attr interpolationmode none
attr recordingmode vector(count)
attr source packetSentToUpper
attr title "packets passed up, count"
vector 38 IoTNetwork.watchA[0].udp droppedPkWrongPort:vector(count) ETV
attr interpolationmode none
attr recordingmode vector(count)
attr source packetDropReasonIsNoPortFound(packetDropped)
attr title "packets dropped (wrong port), count"
vector 39 IoTNetwork.watchA[0].udp droppedPkBadChecksum:vector(count) ETV
attr interpolationmode none
attr recordingmode vector(count)
attr source packetDropReasonIsIncorrectlyReceived(packetDropped)
attr title "packets dropped (checksum error), count"
vector 40 IoTNetwork.cameraB[0].wlan[0].mac.dcf frameSequenceActive:vector ETV
attr autoWarmupFilter false
attr interpolationmode sample-hold
attr recordingmode vector
attr source warmup(count(frameSequenceStarted)-count(frameSequenceFinished))
attr title "frame sequence active"
vector 41 IoTNetwork.cameraB[0].wlan[0].mac.dcf.channelAccess.pendingQueue queueLength:vector ETV
attr autoWarmupFilter false
attr interpolationmode sample-hold
attr recordingmode vector
attr source "warmup(atomic(constant0(packetPushEnded) + count(packetPushStarted) - count(packetPulled) - count(packetRemoved) - count(packetDropped)))"
attr title "queue length"
attr unit pk
vector 42 IoTNetwork.cameraB[0].wlan[0].mac.dcf.channelAccess.pendingQueue queueBitLength:vector ETV
attr autoWarmupFilter false
attr interpolationmode sample-hold
attr recordingmode vector
attr source "warmup(atomic(constant0(packetPushEnded) + sum(packetLength(packetPushStarted)) - sum(packetLength(packetPulled)) - sum(packetLength(packetRemoved)) - sum(packetLength(packetDropped))))"
attr title "queue bit length"
attr unit b
vector 43 IoTNetwork.cameraB[0].wlan[0].mac.dcf.channelAccess.inProgressFrames queueLength:vector ETV
attr autoWarmupFilter false
attr interpolationmode sample-hold
attr recordingmode vector
attr source "warmup(count(packetEnqueued) - count(packetDequeued))"
attr title "queue length"
vector 44 IoTNetwork.cameraB[0].wlan[0].mac.dcf.channelAccess.contention backoffActive:vector ETV
attr autoWarmupFilter false
attr interpolationmode sample-hold
attr recordingmode vector
attr source warmup(count(backoffStarted)-count(backoffStopped))
attr title "backoff active"
vector 45 IoTNetwork.cameraB[0].udp passedUpPk:vector(count) ETV
attr interpolationmode none
attr recordingmode vector(count)
attr source packetSentToUpper
attr title "packets passed up, count"
vector 46 IoTNetwork.cameraB[0].udp droppedPkWrongPort:vector(count) ETV
attr interpolationmode none
attr recordingmode vector(count)
attr source packetDropReasonIsNoPortFound(packetDropped)
attr title "packets dropped (wrong port), count"
vector 47 IoTNetwork.cameraB[0].udp droppedPkBadChecksum:vector(count) ETV
attr interpolationmode none
attr recordingmode vector(count)
attr source packetDropReasonIsIncorrectlyReceived(packetDropped)
attr title "packets dropped (checksum error), count"
vector 48 IoTNetwork.cameraB[1].wlan[0].mac.dcf frameSequenceActive:vector ETV
attr autoWarmupFilter false
attr interpolationmode sample-hold
attr recordingmode vector
attr source warmup(count(frameSequenceStarted)-count(frameSequenceFinished))
attr title "frame sequence active"
vector 49 IoTNetwork.cameraB[1].wlan[0].mac.dcf.channelAccess.pendingQueue queueLength:vector ETV
attr autoWarmupFilter false
attr interpolationmode sample-hold
attr recordingmode vector
attr source "warmup(atomic(constant0(packetPushEnded) + count(packetPushStarted) - count(packetPulled) - count(packetRemoved) - count(packetDropped)))"
attr title "queue length"
attr unit pk
vector 50 IoTNetwork.cameraB[1].wlan[0].mac.dcf.channelAccess.pendingQueue queueBitLength:vector ETV
attr autoWarmupFilter false
attr interpolationmode sample-hold
attr recordingmode vector
attr source "warmup(atomic(constant0(packetPushEnded) + sum(packetLength(packetPushStarted)) - sum(packetLength(packetPulled)) - sum(packetLength(packetRemoved)) - sum(packetLength(packetDropped))))"
attr title "queue bit length"
attr unit b
vector 51 IoTNetwork.cameraB[1].wlan[0].mac.dcf.channelAccess.inProgressFrames queueLength:vector ETV
attr autoWarmupFilter false
attr interpolationmode sample-hold
attr recordingmode vector
attr source "warmup(count(packetEnqueued) - count(packetDequeued))"
attr title "queue length"
vector 52 IoTNetwork.cameraB[1].wlan[0].mac.dcf.channelAccess.contention backoffActive:vector ETV
attr autoWarmupFilter false
attr interpolationmode sample-hold
attr recordingmode vector
attr source warmup(count(backoffStarted)-count(backoffStopped))
attr title "backoff active"
vector 53 IoTNetwork.cameraB[1].udp passedUpPk:vector(count) ETV
attr interpolationmode none
attr recordingmode vector(count)
attr source packetSentToUpper
attr title "packets passed up, count"
vector 54 IoTNetwork.cameraB[1].udp droppedPkWrongPort:vector(count) ETV
attr interpolationmode none
attr recordingmode vector(count)
attr source packetDropReasonIsNoPortFound(packetDropped)
attr title "packets dropped (wrong port), count"
vector 55 IoTNetwork.cameraB[1].udp droppedPkBadChecksum:vector(count) ETV
attr interpolationmode none
attr recordingmode vector(count)
attr source packetDropReasonIsIncorrectlyReceived(packetDropped)
attr title "packets dropped (checksum error), count"
vector 56 IoTNetwork.cameraB[2].wlan[0].mac.dcf frameSequenceActive:vector ETV
attr autoWarmupFilter false
attr interpolationmode sample-hold
attr recordingmode vector
attr source warmup(count(frameSequenceStarted)-count(frameSequenceFinished))
attr title "frame sequence active"
vector 57 IoTNetwork.cameraB[2].wlan[0].mac.dcf.channelAccess.pendingQueue queueLength:vector ETV
attr autoWarmupFilter false
attr interpolationmode sample-hold
attr recordingmode vector
attr source "warmup(atomic(constant0(packetPushEnded) + count(packetPushStarted) - count(packetPulled) - count(packetRemoved) - count(packetDropped)))"
attr title "queue length"
attr unit pk
vector 58 IoTNetwork.cameraB[2].wlan[0].mac.dcf.channelAccess.pendingQueue queueBitLength:vector ETV
attr autoWarmupFilter false
attr interpolationmode sample-hold
attr recordingmode vector
attr source "warmup(atomic(constant0(packetPushEnded) + sum(packetLength(packetPushStarted)) - sum(packetLength(packetPulled)) - sum(packetLength(packetRemoved)) - sum(packetLength(packetDropped))))"
attr title "queue bit length"
attr unit b
vector 59 IoTNetwork.cameraB[2].wlan[0].mac.dcf.channelAccess.inProgressFrames queueLength:vector ETV
attr autoWarmupFilter false
attr interpolationmode sample-hold
attr recordingmode vector
attr source "warmup(count(packetEnqueued) - count(packetDequeued))"
attr title "queue length"
vector 60 IoTNetwork.cameraB[2].wlan[0].mac.dcf.channelAccess.contention backoffActive:vector ETV
attr autoWarmupFilter false
attr interpolationmode sample-hold
attr recordingmode vector
attr source warmup(count(backoffStarted)-count(backoffStopped))
attr title "backoff active"
vector 61 IoTNetwork.cameraB[2].udp passedUpPk:vector(count) ETV
attr interpolationmode none
attr recordingmode vector(count)
attr source packetSentToUpper
attr title "packets passed up, count"
vector 62 IoTNetwork.cameraB[2].udp droppedPkWrongPort:vector(count) ETV
attr interpolationmode none
attr recordingmode vector(count)
attr source packetDropReasonIsNoPortFound(packetDropped)
attr title "packets dropped (wrong port), count"
vector 63 IoTNetwork.cameraB[2].udp droppedPkBadChecksum:vector(count) ETV
attr interpolationmode none
attr recordingmode vector(count)
attr source packetDropReasonIsIncorrectlyReceived(packetDropped)
attr title "packets dropped (checksum error), count"
vector 64 IoTNetwork.watchB[0].wlan[0].mac.dcf frameSequenceActive:vector ETV
attr autoWarmupFilter false
attr interpolationmode sample-hold
attr recordingmode vector
attr source warmup(count(frameSequenceStarted)-count(frameSequenceFinished))
attr title "frame sequence active"
vector 65 IoTNetwork.watchB[0].wlan[0].mac.dcf.channelAccess.pendingQueue queueLength:vector ETV
attr autoWarmupFilter false
attr interpolationmode sample-hold
attr recordingmode vector
attr source "warmup(atomic(constant0(packetPushEnded) + count(packetPushStarted) - count(packetPulled) - count(packetRemoved) - count(packetDropped)))"
attr title "queue length"
attr unit pk
vector 66 IoTNetwork.watchB[0].wlan[0].mac.dcf.channelAccess.pendingQueue queueBitLength:vector ETV
attr autoWarmupFilter false
attr interpolationmode sample-hold
attr recordingmode vector
attr source "warmup(atomic(constant0(packetPushEnded) + sum(packetLength(packetPushStarted)) - sum(packetLength(packetPulled)) - sum(packetLength(packetRemoved)) - sum(packetLength(packetDropped))))"
attr title "queue bit length"
attr unit b
vector 67 IoTNetwork.watchB[0].wlan[0].mac.dcf.channelAccess.inProgressFrames queueLength:vector ETV
attr autoWarmupFilter false
attr interpolationmode sample-hold
attr recordingmode vector
attr source "warmup(count(packetEnqueued) - count(packetDequeued))"
attr title "queue length"
vector 68 IoTNetwork.watchB[0].wlan[0].mac.dcf.channelAccess.contention backoffActive:vector ETV
attr autoWarmupFilter false
attr interpolationmode sample-hold
attr recordingmode vector
attr source warmup(count(backoffStarted)-count(backoffStopped))
attr title "backoff active"
vector 69 IoTNetwork.watchB[0].udp passedUpPk:vector(count) ETV
attr interpolationmode none
attr recordingmode vector(count)
attr source packetSentToUpper
attr title "packets passed up, count"
vector 70 IoTNetwork.watchB[0].udp droppedPkWrongPort:vector(count) ETV
attr interpolationmode none
attr recordingmode vector(count)
attr source packetDropReasonIsNoPortFound(packetDropped)
attr title "packets dropped (wrong port), count"
vector 71 IoTNetwork.watchB[0].udp droppedPkBadChecksum:vector(count) ETV
attr interpolationmode none
attr recordingmode vector(count)
attr source packetDropReasonIsIncorrectlyReceived(packetDropped)
attr title "packets dropped (checksum error), count"
vector 72 IoTNetwork.watchB[1].wlan[0].mac.dcf frameSequenceActive:vector ETV
attr autoWarmupFilter false
attr interpolationmode sample-hold
attr recordingmode vector
attr source warmup(count(frameSequenceStarted)-count(frameSequenceFinished))
attr title "frame sequence active"
vector 73 IoTNetwork.watchB[1].wlan[0].mac.dcf.channelAccess.pendingQueue queueLength:vector ETV
attr autoWarmupFilter false
attr interpolationmode sample-hold
attr recordingmode vector
attr source "warmup(atomic(constant0(packetPushEnded) + count(packetPushStarted) - count(packetPulled) - count(packetRemoved) - count(packetDropped)))"
attr title "queue length"
attr unit pk
vector 74 IoTNetwork.watchB[1].wlan[0].mac.dcf.channelAccess.pendingQueue queueBitLength:vector ETV
attr autoWarmupFilter false
attr interpolationmode sample-hold
attr recordingmode vector
attr source "warmup(atomic(constant0(packetPushEnded) + sum(packetLength(packetPushStarted)) - sum(packetLength(packetPulled)) - sum(packetLength(packetRemoved)) - sum(packetLength(packetDropped))))"
attr title "queue bit length"
attr unit b
vector 75 IoTNetwork.watchB[1].wlan[0].mac.dcf.channelAccess.inProgressFrames queueLength:vector ETV
attr autoWarmupFilter false
attr interpolationmode sample-hold
attr recordingmode vector
attr source "warmup(count(packetEnqueued) - count(packetDequeued))"
attr title "queue length"
vector 76 IoTNetwork.watchB[1].wlan[0].mac.dcf.channelAccess.contention backoffActive:vector ETV
attr autoWarmupFilter false
attr interpolationmode sample-hold
attr recordingmode vector
attr source warmup(count(backoffStarted)-count(backoffStopped))
attr title "backoff active"
vector 77 IoTNetwork.watchB[1].udp passedUpPk:vector(count) ETV
attr interpolationmode none
attr recordingmode vector(count)
attr source packetSentToUpper
attr title "packets passed up, count"
vector 78 IoTNetwork.watchB[1].udp droppedPkWrongPort:vector(count) ETV
attr interpolationmode none
attr recordingmode vector(count)
attr source packetDropReasonIsNoPortFound(packetDropped)
attr title "packets dropped (wrong port), count"
vector 79 IoTNetwork.watchB[1].udp droppedPkBadChecksum:vector(count) ETV
attr interpolationmode none
attr recordingmode vector(count)
attr source packetDropReasonIsIncorrectlyReceived(packetDropped)
attr title "packets dropped (checksum error), count"
vector 80 IoTNetwork.phoneC[0].wlan[0].mac.dcf frameSequenceActive:vector ETV
attr autoWarmupFilter false
attr interpolationmode sample-hold
attr recordingmode vector
attr source warmup(count(frameSequenceStarted)-count(frameSequenceFinished))
attr title "frame sequence active"
vector 81 IoTNetwork.phoneC[0].wlan[0].mac.dcf.channelAccess.pendingQueue queueLength:vector ETV
attr autoWarmupFilter false
attr interpolationmode sample-hold
attr recordingmode vector
attr source "warmup(atomic(constant0(packetPushEnded) + count(packetPushStarted) - count(packetPulled) - count(packetRemoved) - count(packetDropped)))"
attr title "queue length"
attr unit pk
vector 82 IoTNetwork.phoneC[0].wlan[0].mac.dcf.channelAccess.pendingQueue queueBitLength:vector ETV
attr autoWarmupFilter false
attr interpolationmode sample-hold
attr recordingmode vector
attr source "warmup(atomic(constant0(packetPushEnded) + sum(packetLength(packetPushStarted)) - sum(packetLength(packetPulled)) - sum(packetLength(packetRemoved)) - sum(packetLength(packetDropped))))"
attr title "queue bit length"
attr unit b
vector 83 IoTNetwork.phoneC[0].wlan[0].mac.dcf.channelAccess.inProgressFrames queueLength:vector ETV
attr autoWarmupFilter false
attr interpolationmode sample-hold
attr recordingmode vector
attr source "warmup(count(packetEnqueued) - count(packetDequeued))"
attr title "queue length"
vector 84 IoTNetwork.phoneC[0].wlan[0].mac.dcf.channelAccess.contention backoffActive:vector ETV
attr autoWarmupFilter false
attr interpolationmode sample-hold
attr recordingmode vector
attr source warmup(count(backoffStarted)-count(backoffStopped))
attr title "backoff active"
vector 85 IoTNetwork.phoneC[0].udp passedUpPk:vector(count) ETV
attr interpolationmode none
attr recordingmode vector(count)
attr source packetSentToUpper
attr title "packets passed up, count"
vector 86 IoTNetwork.phoneC[0].udp droppedPkWrongPort:vector(count) ETV
attr interpolationmode none
attr recordingmode vector(count)
attr source packetDropReasonIsNoPortFound(packetDropped)
attr title "packets dropped (wrong port), count"
vector 87 IoTNetwork.phoneC[0].udp droppedPkBadChecksum:vector(count) ETV
attr interpolationmode none
attr recordingmode vector(count)
attr source packetDropReasonIsIncorrectlyReceived(packetDropped)
attr title "packets dropped (checksum error), count"
vector 88 IoTNetwork.phoneC[1].wlan[0].mac.dcf frameSequenceActive:vector ETV
attr autoWarmupFilter false
attr interpolationmode sample-hold
attr recordingmode vector
attr source warmup(count(frameSequenceStarted)-count(frameSequenceFinished))
attr title "frame sequence active"
vector 89 IoTNetwork.phoneC[1].wlan[0].mac.dcf.channelAccess.pendingQueue queueLength:vector ETV
attr autoWarmupFilter false
attr interpolationmode sample-hold
attr recordingmode vector
attr source "warmup(atomic(constant0(packetPushEnded) + count(packetPushStarted) - count(packetPulled) - count(packetRemoved) - count(packetDropped)))"
attr title "queue length"
attr unit pk
vector 90 IoTNetwork.phoneC[1].wlan[0].mac.dcf.channelAccess.pendingQueue queueBitLength:vector ETV
attr autoWarmupFilter false
attr interpolationmode sample-hold
attr recordingmode vector
attr source "warmup(atomic(constant0(packetPushEnded) + sum(packetLength(packetPushStarted)) - sum(packetLength(packetPulled)) - sum(packetLength(packetRemoved)) - sum(packetLength(packetDropped))))"
attr title "queue bit length"
attr unit b
vector 91 IoTNetwork.phoneC[1].wlan[0].mac.dcf.channelAccess.inProgressFrames queueLength:vector ETV
attr autoWarmupFilter false
attr interpolationmode sample-hold
attr recordingmode vector
attr source "warmup(count(packetEnqueued) - count(packetDequeued))"
attr title "queue length"
vector 92 IoTNetwork.phoneC[1].wlan[0].mac.dcf.channelAccess.contention backoffActive:vector ETV
attr autoWarmupFilter false
attr interpolationmode sample-hold
attr recordingmode vector
attr source warmup(count(backoffStarted)-count(backoffStopped))
attr title "backoff active"
vector 93 IoTNetwork.phoneC[1].udp passedUpPk:vector(count) ETV
attr interpolationmode none
attr recordingmode vector(count)
attr source packetSentToUpper
attr title "packets passed up, count"
vector 94 IoTNetwork.phoneC[1].udp droppedPkWrongPort:vector(count) ETV
attr interpolationmode none
attr recordingmode vector(count)
attr source packetDropReasonIsNoPortFound(packetDropped)
attr title "packets dropped (wrong port), count"
vector 95 IoTNetwork.phoneC[1].udp droppedPkBadChecksum:vector(count) ETV
attr interpolationmode none
attr recordingmode vector(count)
attr source packetDropReasonIsIncorrectlyReceived(packetDropped)
attr title "packets dropped (checksum error), count"
vector 96 IoTNetwork.watchC[0].wlan[0].mac.dcf frameSequenceActive:vector ETV
attr autoWarmupFilter false
attr interpolationmode sample-hold
attr recordingmode vector
attr source warmup(count(frameSequenceStarted)-count(frameSequenceFinished))
attr title "frame sequence active"
vector 97 IoTNetwork.watchC[0].wlan[0].mac.dcf.channelAccess.pendingQueue queueLength:vector ETV
attr autoWarmupFilter false
attr interpolationmode sample-hold
attr recordingmode vector
attr source "warmup(atomic(constant0(packetPushEnded) + count(packetPushStarted) - count(packetPulled) - count(packetRemoved) - count(packetDropped)))"
attr title "queue length"
attr unit pk
vector 98 IoTNetwork.watchC[0].wlan[0].mac.dcf.channelAccess.pendingQueue queueBitLength:vector ETV
attr autoWarmupFilter false
attr interpolationmode sample-hold
attr recordingmode vector
attr source "warmup(atomic(constant0(packetPushEnded) + sum(packetLength(packetPushStarted)) - sum(packetLength(packetPulled)) - sum(packetLength(packetRemoved)) - sum(packetLength(packetDropped))))"
attr title "queue bit length"
attr unit b
vector 99 IoTNetwork.watchC[0].wlan[0].mac.dcf.channelAccess.inProgressFrames queueLength:vector ETV
attr autoWarmupFilter false
attr interpolationmode sample-hold
attr recordingmode vector
attr source "warmup(count(packetEnqueued) - count(packetDequeued))"
attr title "queue length"
vector 100 IoTNetwork.watchC[0].wlan[0].mac.dcf.channelAccess.contention backoffActive:vector ETV
attr autoWarmupFilter false
attr interpolationmode sample-hold
attr recordingmode vector
attr source warmup(count(backoffStarted)-count(backoffStopped))
attr title "backoff active"
vector 101 IoTNetwork.watchC[0].udp passedUpPk:vector(count) ETV
attr interpolationmode none
attr recordingmode vector(count)
attr source packetSentToUpper
attr title "packets passed up, count"
vector 102 IoTNetwork.watchC[0].udp droppedPkWrongPort:vector(count) ETV
attr interpolationmode none
attr recordingmode vector(count)
attr source packetDropReasonIsNoPortFound(packetDropped)
attr title "packets dropped (wrong port), count"
vector 103 IoTNetwork.watchC[0].udp droppedPkBadChecksum:vector(count) ETV
attr interpolationmode none
attr recordingmode vector(count)
attr source packetDropReasonIsIncorrectlyReceived(packetDropped)
attr title "packets dropped (checksum error), count"
vector 104 IoTNetwork.watchC[1].wlan[0].mac.dcf frameSequenceActive:vector ETV
attr autoWarmupFilter false
attr interpolationmode sample-hold
attr recordingmode vector
attr source warmup(count(frameSequenceStarted)-count(frameSequenceFinished))
attr title "frame sequence active"
vector 105 IoTNetwork.watchC[1].wlan[0].mac.dcf.channelAccess.pendingQueue queueLength:vector ETV
attr autoWarmupFilter false
attr interpolationmode sample-hold
attr recordingmode vector
attr source "warmup(atomic(constant0(packetPushEnded) + count(packetPushStarted) - count(packetPulled) - count(packetRemoved) - count(packetDropped)))"
attr title "queue length"
attr unit pk
vector 106 IoTNetwork.watchC[1].wlan[0].mac.dcf.channelAccess.pendingQueue queueBitLength:vector ETV
attr autoWarmupFilter false
attr interpolationmode sample-hold
attr recordingmode vector
attr source "warmup(atomic(constant0(packetPushEnded) + sum(packetLength(packetPushStarted)) - sum(packetLength(packetPulled)) - sum(packetLength(packetRemoved)) - sum(packetLength(packetDropped))))"
attr title "queue bit length"
attr unit b
vector 107 IoTNetwork.watchC[1].wlan[0].mac.dcf.channelAccess.inProgressFrames queueLength:vector ETV
attr autoWarmupFilter false
attr interpolationmode sample-hold
attr recordingmode vector
attr source "warmup(count(packetEnqueued) - count(packetDequeued))"
attr title "queue length"
vector 108 IoTNetwork.watchC[1].wlan[0].mac.dcf.channelAccess.contention backoffActive:vector ETV
attr autoWarmupFilter false
attr interpolationmode sample-hold
attr recordingmode vector
attr source warmup(count(backoffStarted)-count(backoffStopped))
attr title "backoff active"
vector 109 IoTNetwork.watchC[1].udp passedUpPk:vector(count) ETV
attr interpolationmode none
attr recordingmode vector(count)
attr source packetSentToUpper
attr title "packets passed up, count"
vector 110 IoTNetwork.watchC[1].udp droppedPkWrongPort:vector(count) ETV
attr interpolationmode none
attr recordingmode vector(count)
attr source packetDropReasonIsNoPortFound(packetDropped)
attr title "packets dropped (wrong port), count"
vector 111 IoTNetwork.watchC[1].udp droppedPkBadChecksum:vector(count) ETV
attr interpolationmode none
attr recordingmode vector(count)
attr source packetDropReasonIsIncorrectlyReceived(packetDropped)
attr title "packets dropped (checksum error), count"
vector 112 IoTNetwork.watchC[2].wlan[0].mac.dcf frameSequenceActive:vector ETV
attr autoWarmupFilter false
attr interpolationmode sample-hold
attr recordingmode vector
attr source warmup(count(frameSequenceStarted)-count(frameSequenceFinished))
attr title "frame sequence active"
vector 113 IoTNetwork.watchC[2].wlan[0].mac.dcf.channelAccess.pendingQueue queueLength:vector ETV
attr autoWarmupFilter false
attr interpolationmode sample-hold
attr recordingmode vector
attr source "warmup(atomic(constant0(packetPushEnded) + count(packetPushStarted) - count(packetPulled) - count(packetRemoved) - count(packetDropped)))"
attr title "queue length"
attr unit pk
vector 114 IoTNetwork.watchC[2].wlan[0].mac.dcf.channelAccess.pendingQueue queueBitLength:vector ETV
attr autoWarmupFilter false
attr interpolationmode sample-hold
attr recordingmode vector
attr source "warmup(atomic(constant0(packetPushEnded) + sum(packetLength(packetPushStarted)) - sum(packetLength(packetPulled)) - sum(packetLength(packetRemoved)) - sum(packetLength(packetDropped))))"
attr title "queue bit length"
attr unit b
vector 115 IoTNetwork.watchC[2].wlan[0].mac.dcf.channelAccess.inProgressFrames queueLength:vector ETV
attr autoWarmupFilter false
attr interpolationmode sample-hold
attr recordingmode vector
attr source "warmup(count(packetEnqueued) - count(packetDequeued))"
attr title "queue length"
vector 116 IoTNetwork.watchC[2].wlan[0].mac.dcf.channelAccess.contention backoffActive:vector ETV
attr autoWarmupFilter false
attr interpolationmode sample-hold
attr recordingmode vector
attr source warmup(count(backoffStarted)-count(backoffStopped))
attr title "backoff active"
vector 117 IoTNetwork.watchC[2].udp passedUpPk:vector(count) ETV
attr interpolationmode none
attr recordingmode vector(count)
attr source packetSentToUpper
attr title "packets passed up, count"
vector 118 IoTNetwork.watchC[2].udp droppedPkWrongPort:vector(count) ETV
attr interpolationmode none
attr recordingmode vector(count)
attr source packetDropReasonIsNoPortFound(packetDropped)
attr title "packets dropped (wrong port), count"
vector 119 IoTNetwork.watchC[2].udp droppedPkBadChecksum:vector(count) ETV
attr interpolationmode none
attr recordingmode vector(count)
attr source packetDropReasonIsIncorrectlyReceived(packetDropped)
attr title "packets dropped (checksum error), count"
vector 120 IoTNetwork.cameraD[0].wlan[0].mac.dcf frameSequenceActive:vector ETV
attr autoWarmupFilter false
attr interpolationmode sample-hold
attr recordingmode vector
attr source warmup(count(frameSequenceStarted)-count(frameSequenceFinished))
attr title "frame sequence active"
vector 121 IoTNetwork.cameraD[0].wlan[0].mac.dcf.channelAccess.pendingQueue queueLength:vector ETV
attr autoWarmupFilter false
attr interpolationmode sample-hold
attr recordingmode vector
attr source "warmup(atomic(constant0(packetPushEnded) + count(packetPushStarted) - count(packetPulled) - count(packetRemoved) - count(packetDropped)))"
attr title "queue length"
attr unit pk
vector 122 IoTNetwork.cameraD[0].wlan[0].mac.dcf.channelAccess.pendingQueue queueBitLength:vector ETV
attr autoWarmupFilter false
attr interpolationmode sample-hold
attr recordingmode vector
attr source "warmup(atomic(constant0(packetPushEnded) + sum(packetLength(packetPushStarted)) - sum(packetLength(packetPulled)) - sum(packetLength(packetRemoved)) - sum(packetLength(packetDropped))))"
attr title "queue bit length"
attr unit b
vector 123 IoTNetwork.cameraD[0].wlan[0].mac.dcf.channelAccess.inProgressFrames queueLength:vector ETV
attr autoWarmupFilter false
attr interpolationmode sample-hold
attr recordingmode vector
attr source "warmup(count(packetEnqueued) - count(packetDequeued))"
attr title "queue length"
vector 124 IoTNetwork.cameraD[0].wlan[0].mac.dcf.channelAccess.contention backoffActive:vector ETV
attr autoWarmupFilter false
attr interpolationmode sample-hold
attr recordingmode vector
attr source warmup(count(backoffStarted)-count(backoffStopped))
attr title "backoff active"
vector 125 IoTNetwork.cameraD[0].udp passedUpPk:vector(count) ETV
attr interpolationmode none
attr recordingmode vector(count)
attr source packetSentToUpper
attr title "packets passed up, count"
vector 126 IoTNetwork.cameraD[0].udp droppedPkWrongPort:vector(count) ETV
attr interpolationmode none
attr recordingmode vector(count)
attr source packetDropReasonIsNoPortFound(packetDropped)
attr title "packets dropped (wrong port), count"
vector 127 IoTNetwork.cameraD[0].udp droppedPkBadChecksum:vector(count) ETV
attr interpolationmode none
attr recordingmode vector(count)
attr source packetDropReasonIsIncorrectlyReceived(packetDropped)
attr title "packets dropped (checksum error), count"
vector 128 IoTNetwork.phoneD[0].wlan[0].mac.dcf frameSequenceActive:vector ETV
attr autoWarmupFilter false
attr interpolationmode sample-hold
attr recordingmode vector
attr source warmup(count(frameSequenceStarted)-count(frameSequenceFinished))
attr title "frame sequence active"
vector 129 IoTNetwork.phoneD[0].wlan[0].mac.dcf.channelAccess.pendingQueue queueLength:vector ETV
attr autoWarmupFilter false
attr interpolationmode sample-hold
attr recordingmode vector
attr source "warmup(atomic(constant0(packetPushEnded) + count(packetPushStarted) - count(packetPulled) - count(packetRemoved) - count(packetDropped)))"
attr title "queue length"
attr unit pk
vector 130 IoTNetwork.phoneD[0].wlan[0].mac.dcf.channelAccess.pendingQueue queueBitLength:vector ETV
attr autoWarmupFilter false
attr interpolationmode sample-hold
attr recordingmode vector
attr source "warmup(atomic(constant0(packetPushEnded) + sum(packetLength(packetPushStarted)) - sum(packetLength(packetPulled)) - sum(packetLength(packetRemoved)) - sum(packetLength(packetDropped))))"
attr title "queue bit length"
attr unit b
vector 131 IoTNetwork.phoneD[0].wlan[0].mac.dcf.channelAccess.inProgressFrames queueLength:vector ETV
attr autoWarmupFilter false
attr interpolationmode sample-hold
attr recordingmode vector
attr source "warmup(count(packetEnqueued) - count(packetDequeued))"
attr title "queue length"
vector 132 IoTNetwork.phoneD[0].wlan[0].mac.dcf.channelAccess.contention backoffActive:vector ETV
attr autoWarmupFilter false
attr interpolationmode sample-hold
attr recordingmode vector
attr source warmup(count(backoffStarted)-count(backoffStopped))
attr title "backoff active"
vector 133 IoTNetwork.phoneD[0].udp passedUpPk:vector(count) ETV
attr interpolationmode none
attr recordingmode vector(count)
attr source packetSentToUpper
attr title "packets passed up, count"
vector 134 IoTNetwork.phoneD[0].udp droppedPkWrongPort:vector(count) ETV
attr interpolationmode none
attr recordingmode vector(count)
attr source packetDropReasonIsNoPortFound(packetDropped)
attr title "packets dropped (wrong port), count"
vector 135 IoTNetwork.phoneD[0].udp droppedPkBadChecksum:vector(count) ETV
attr interpolationmode none
attr recordingmode vector(count)
attr source packetDropReasonIsIncorrectlyReceived(packetDropped)
attr title "packets dropped (checksum error), count"
vector 136 IoTNetwork.phoneD[1].wlan[0].mac.dcf frameSequenceActive:vector ETV
attr autoWarmupFilter false
attr interpolationmode sample-hold
attr recordingmode vector
attr source warmup(count(frameSequenceStarted)-count(frameSequenceFinished))
attr title "frame sequence active"
vector 137 IoTNetwork.phoneD[1].wlan[0].mac.dcf.channelAccess.pendingQueue queueLength:vector ETV
attr autoWarmupFilter false
attr interpolationmode sample-hold
attr recordingmode vector
attr source "warmup(atomic(constant0(packetPushEnded) + count(packetPushStarted) - count(packetPulled) - count(packetRemoved) - count(packetDropped)))"
attr title "queue length"
attr unit pk
vector 138 IoTNetwork.phoneD[1].wlan[0].mac.dcf.channelAccess.pendingQueue queueBitLength:vector ETV
attr autoWarmupFilter false
attr interpolationmode sample-hold
attr recordingmode vector
attr source "warmup(atomic(constant0(packetPushEnded) + sum(packetLength(packetPushStarted)) - sum(packetLength(packetPulled)) - sum(packetLength(packetRemoved)) - sum(packetLength(packetDropped))))"
attr title "queue bit length"
attr unit b
vector 139 IoTNetwork.phoneD[1].wlan[0].mac.dcf.channelAccess.inProgressFrames queueLength:vector ETV
attr autoWarmupFilter false
attr interpolationmode sample-hold
attr recordingmode vector
attr source "warmup(count(packetEnqueued) - count(packetDequeued))"
attr title "queue length"
vector 140 IoTNetwork.phoneD[1].wlan[0].mac.dcf.channelAccess.contention backoffActive:vector ETV
attr autoWarmupFilter false
attr interpolationmode sample-hold
attr recordingmode vector
attr source warmup(count(backoffStarted)-count(backoffStopped))
attr title "backoff active"
vector 141 IoTNetwork.phoneD[1].udp passedUpPk:vector(count) ETV
attr interpolationmode none
attr recordingmode vector(count)
attr source packetSentToUpper
attr title "packets passed up, count"
vector 142 IoTNetwork.phoneD[1].udp droppedPkWrongPort:vector(count) ETV
attr interpolationmode none
attr recordingmode vector(count)
attr source packetDropReasonIsNoPortFound(packetDropped)
attr title "packets dropped (wrong port), count"
vector 143 IoTNetwork.phoneD[1].udp droppedPkBadChecksum:vector(count) ETV
attr interpolationmode none
attr recordingmode vector(count)
attr source packetDropReasonIsIncorrectlyReceived(packetDropped)
attr title "packets dropped (checksum error), count"
vector 144 IoTNetwork.phoneD[2].wlan[0].mac.dcf frameSequenceActive:vector ETV
attr autoWarmupFilter false
attr interpolationmode sample-hold
attr recordingmode vector
attr source warmup(count(frameSequenceStarted)-count(frameSequenceFinished))
attr title "frame sequence active"
vector 145 IoTNetwork.phoneD[2].wlan[0].mac.dcf.channelAccess.pendingQueue queueLength:vector ETV
attr autoWarmupFilter false
attr interpolationmode sample-hold
attr recordingmode vector
attr source "warmup(atomic(constant0(packetPushEnded) + count(packetPushStarted) - count(packetPulled) - count(packetRemoved) - count(packetDropped)))"
attr title "queue length"
attr unit pk
vector 146 IoTNetwork.phoneD[2].wlan[0].mac.dcf.channelAccess.pendingQueue queueBitLength:vector ETV
attr autoWarmupFilter false
attr interpolationmode sample-hold
attr recordingmode vector
attr source "warmup(atomic(constant0(packetPushEnded) + sum(packetLength(packetPushStarted)) - sum(packetLength(packetPulled)) - sum(packetLength(packetRemoved)) - sum(packetLength(packetDropped))))"
attr title "queue bit length"
attr unit b
vector 147 IoTNetwork.phoneD[2].wlan[0].mac.dcf.channelAccess.inProgressFrames queueLength:vector ETV
attr autoWarmupFilter false
attr interpolationmode sample-hold
attr recordingmode vector
attr source "warmup(count(packetEnqueued) - count(packetDequeued))"
attr title "queue length"
vector 148 IoTNetwork.phoneD[2].wlan[0].mac.dcf.channelAccess.contention backoffActive:vector ETV
attr autoWarmupFilter false
attr interpolationmode sample-hold
attr recordingmode vector
attr source warmup(count(backoffStarted)-count(backoffStopped))
attr title "backoff active"
vector 149 IoTNetwork.phoneD[2].udp passedUpPk:vector(count) ETV
attr interpolationmode none
attr recordingmode vector(count)
attr source packetSentToUpper
attr title "packets passed up, count"
vector 150 IoTNetwork.phoneD[2].udp droppedPkWrongPort:vector(count) ETV
attr interpolationmode none
attr recordingmode vector(count)
attr source packetDropReasonIsNoPortFound(packetDropped)
attr title "packets dropped (wrong port), count"
vector 151 IoTNetwork.phoneD[2].udp droppedPkBadChecksum:vector(count) ETV
attr interpolationmode none
attr recordingmode vector(count)
attr source packetDropReasonIsIncorrectlyReceived(packetDropped)
attr title "packets dropped (checksum error), count"
vector 152 IoTNetwork.watchD[0].wlan[0].mac.dcf frameSequenceActive:vector ETV
attr autoWarmupFilter false
attr interpolationmode sample-hold
attr recordingmode vector
attr source warmup(count(frameSequenceStarted)-count(frameSequenceFinished))
attr title "frame sequence active"
vector 153 IoTNetwork.watchD[0].wlan[0].mac.dcf.channelAccess.pendingQueue queueLength:vector ETV
attr autoWarmupFilter false
attr interpolationmode sample-hold
attr recordingmode vector
attr source "warmup(atomic(constant0(packetPushEnded) + count(packetPushStarted) - count(packetPulled) - count(packetRemoved) - count(packetDropped)))"
attr title "queue length"
attr unit pk
vector 154 IoTNetwork.watchD[0].wlan[0].mac.dcf.channelAccess.pendingQueue queueBitLength:vector ETV
attr autoWarmupFilter false
attr interpolationmode sample-hold
attr recordingmode vector
attr source "warmup(atomic(constant0(packetPushEnded) + sum(packetLength(packetPushStarted)) - sum(packetLength(packetPulled)) - sum(packetLength(packetRemoved)) - sum(packetLength(packetDropped))))"
attr title "queue bit length"
attr unit b
vector 155 IoTNetwork.watchD[0].wlan[0].mac.dcf.channelAccess.inProgressFrames queueLength:vector ETV
attr autoWarmupFilter false
attr interpolationmode sample-hold
attr recordingmode vector
attr source "warmup(count(packetEnqueued) - count(packetDequeued))"
attr title "queue length"
vector 156 IoTNetwork.watchD[0].wlan[0].mac.dcf.channelAccess.contention backoffActive:vector ETV
attr autoWarmupFilter false
attr interpolationmode sample-hold
attr recordingmode vector
attr source warmup(count(backoffStarted)-count(backoffStopped))
attr title "backoff active"
vector 157 IoTNetwork.watchD[0].udp passedUpPk:vector(count) ETV
attr interpolationmode none
attr recordingmode vector(count)
attr source packetSentToUpper
attr title "packets passed up, count"
vector 158 IoTNetwork.watchD[0].udp droppedPkWrongPort:vector(count) ETV
attr interpolationmode none
attr recordingmode vector(count)
attr source packetDropReasonIsNoPortFound(packetDropped)
attr title "packets dropped (wrong port), count"
vector 159 IoTNetwork.watchD[0].udp droppedPkBadChecksum:vector(count) ETV
attr interpolationmode none
attr recordingmode vector(count)
attr source packetDropReasonIsIncorrectlyReceived(packetDropped)
attr title "packets dropped (checksum error), count"
vector 160 IoTNetwork.cameraE[0].wlan[0].mac.dcf frameSequenceActive:vector ETV
attr autoWarmupFilter false
attr interpolationmode sample-hold
attr recordingmode vector
attr source warmup(count(frameSequenceStarted)-count(frameSequenceFinished))
attr title "frame sequence active"
vector 161 IoTNetwork.cameraE[0].wlan[0].mac.dcf.channelAccess.pendingQueue queueLength:vector ETV
attr autoWarmupFilter false
attr interpolationmode sample-hold
attr recordingmode vector
attr source "warmup(atomic(constant0(packetPushEnded) + count(packetPushStarted) - count(packetPulled) - count(packetRemoved) - count(packetDropped)))"
attr title "queue length"
attr unit pk
vector 162 IoTNetwork.cameraE[0].wlan[0].mac.dcf.channelAccess.pendingQueue queueBitLength:vector ETV
attr autoWarmupFilter false
attr interpolationmode sample-hold
attr recordingmode vector
attr source "warmup(atomic(constant0(packetPushEnded) + sum(packetLength(packetPushStarted)) - sum(packetLength(packetPulled)) - sum(packetLength(packetRemoved)) - sum(packetLength(packetDropped))))"
attr title "queue bit length"
attr unit b
vector 163 IoTNetwork.cameraE[0].wlan[0].mac.dcf.channelAccess.inProgressFrames queueLength:vector ETV
attr autoWarmupFilter false
attr interpolationmode sample-hold
attr recordingmode vector
attr source "warmup(count(packetEnqueued) - count(packetDequeued))"
attr title "queue length"
vector 164 IoTNetwork.cameraE[0].wlan[0].mac.dcf.channelAccess.contention backoffActive:vector ETV
attr autoWarmupFilter false
attr interpolationmode sample-hold
attr recordingmode vector
attr source warmup(count(backoffStarted)-count(backoffStopped))
attr title "backoff active"
vector 165 IoTNetwork.cameraE[0].udp passedUpPk:vector(count) ETV
attr interpolationmode none
attr recordingmode vector(count)
attr source packetSentToUpper
attr title "packets passed up, count"
vector 166 IoTNetwork.cameraE[0].udp droppedPkWrongPort:vector(count) ETV
attr interpolationmode none
attr recordingmode vector(count)
attr source packetDropReasonIsNoPortFound(packetDropped)
attr title "packets dropped (wrong port), count"
vector 167 IoTNetwork.cameraE[0].udp droppedPkBadChecksum:vector(count) ETV
attr interpolationmode none
attr recordingmode vector(count)
attr source packetDropReasonIsIncorrectlyReceived(packetDropped)
attr title "packets dropped (checksum error), count"
vector 168 IoTNetwork.cameraE[1].wlan[0].mac.dcf frameSequenceActive:vector ETV
attr autoWarmupFilter false
attr interpolationmode sample-hold
attr recordingmode vector
attr source warmup(count(frameSequenceStarted)-count(frameSequenceFinished))
attr title "frame sequence active"
vector 169 IoTNetwork.cameraE[1].wlan[0].mac.dcf.channelAccess.pendingQueue queueLength:vector ETV
attr autoWarmupFilter false
attr interpolationmode sample-hold
attr recordingmode vector
attr source "warmup(atomic(constant0(packetPushEnded) + count(packetPushStarted) - count(packetPulled) - count(packetRemoved) - count(packetDropped)))"
attr title "queue length"
attr unit pk
vector 170 IoTNetwork.cameraE[1].wlan[0].mac.dcf.channelAccess.pendingQueue queueBitLength:vector ETV
attr autoWarmupFilter false
attr interpolationmode sample-hold
attr recordingmode vector
attr source "warmup(atomic(constant0(packetPushEnded) + sum(packetLength(packetPushStarted)) - sum(packetLength(packetPulled)) - sum(packetLength(packetRemoved)) - sum(packetLength(packetDropped))))"
attr title "queue bit length"
attr unit b
vector 171 IoTNetwork.cameraE[1].wlan[0].mac.dcf.channelAccess.inProgressFrames queueLength:vector ETV
attr autoWarmupFilter false
attr interpolationmode sample-hold
attr recordingmode vector
attr source "warmup(count(packetEnqueued) - count(packetDequeued))"
attr title "queue length"
vector 172 IoTNetwork.cameraE[1].wlan[0].mac.dcf.channelAccess.contention backoffActive:vector ETV
attr autoWarmupFilter false
attr interpolationmode sample-hold
attr recordingmode vector
attr source warmup(count(backoffStarted)-count(backoffStopped))
attr title "backoff active"
vector 173 IoTNetwork.cameraE[1].udp passedUpPk:vector(count) ETV
attr interpolationmode none
attr recordingmode vector(count)
attr source packetSentToUpper
attr title "packets passed up, count"
vector 174 IoTNetwork.cameraE[1].udp droppedPkWrongPort:vector(count) ETV
attr interpolationmode none
attr recordingmode vector(count)
attr source packetDropReasonIsNoPortFound(packetDropped)
attr title "packets dropped (wrong port), count"
vector 175 IoTNetwork.cameraE[1].udp droppedPkBadChecksum:vector(count) ETV
attr interpolationmode none
attr recordingmode vector(count)
attr source packetDropReasonIsIncorrectlyReceived(packetDropped)
attr title "packets dropped (checksum error), count"
vector 176 IoTNetwork.phoneE[0].wlan[0].mac.dcf frameSequenceActive:vector ETV
attr autoWarmupFilter false
attr interpolationmode sample-hold
attr recordingmode vector
attr source warmup(count(frameSequenceStarted)-count(frameSequenceFinished))
attr title "frame sequence active"
vector 177 IoTNetwork.phoneE[0].wlan[0].mac.dcf.channelAccess.pendingQueue queueLength:vector ETV
attr autoWarmupFilter false
attr interpolationmode sample-hold
attr recordingmode vector
attr source "warmup(atomic(constant0(packetPushEnded) + count(packetPushStarted) - count(packetPulled) - count(packetRemoved) - count(packetDropped)))"
attr title "queue length"
attr unit pk
vector 178 IoTNetwork.phoneE[0].wlan[0].mac.dcf.channelAccess.pendingQueue queueBitLength:vector ETV
attr autoWarmupFilter false
attr interpolationmode sample-hold
attr recordingmode vector
attr source "warmup(atomic(constant0(packetPushEnded) + sum(packetLength(packetPushStarted)) - sum(packetLength(packetPulled)) - sum(packetLength(packetRemoved)) - sum(packetLength(packetDropped))))"
attr title "queue bit length"
attr unit b
vector 179 IoTNetwork.phoneE[0].wlan[0].mac.dcf.channelAccess.inProgressFrames queueLength:vector ETV
attr autoWarmupFilter false
attr interpolationmode sample-hold
attr recordingmode vector
attr source "warmup(count(packetEnqueued) - count(packetDequeued))"
attr title "queue length"
vector 180 IoTNetwork.phoneE[0].wlan[0].mac.dcf.channelAccess.contention backoffActive:vector ETV
attr autoWarmupFilter false
attr interpolationmode sample-hold
attr recordingmode vector
attr source warmup(count(backoffStarted)-count(backoffStopped))
attr title "backoff active"
vector 181 IoTNetwork.phoneE[0].udp passedUpPk:vector(count) ETV
attr interpolationmode none
attr recordingmode vector(count)
attr source packetSentToUpper
attr title "packets passed up, count"
vector 182 IoTNetwork.phoneE[0].udp droppedPkWrongPort:vector(count) ETV
attr interpolationmode none
attr recordingmode vector(count)
attr source packetDropReasonIsNoPortFound(packetDropped)
attr title "packets dropped (wrong port), count"
vector 183 IoTNetwork.phoneE[0].udp droppedPkBadChecksum:vector(count) ETV
attr interpolationmode none
attr recordingmode vector(count)
attr source packetDropReasonIsIncorrectlyReceived(packetDropped)
attr title "packets dropped (checksum error), count"
vector 184 IoTNetwork.phoneE[1].wlan[0].mac.dcf frameSequenceActive:vector ETV
attr autoWarmupFilter false
attr interpolationmode sample-hold
attr recordingmode vector
attr source warmup(count(frameSequenceStarted)-count(frameSequenceFinished))
attr title "frame sequence active"
vector 185 IoTNetwork.phoneE[1].wlan[0].mac.dcf.channelAccess.pendingQueue queueLength:vector ETV
attr autoWarmupFilter false
attr interpolationmode sample-hold
attr recordingmode vector
attr source "warmup(atomic(constant0(packetPushEnded) + count(packetPushStarted) - count(packetPulled) - count(packetRemoved) - count(packetDropped)))"
attr title "queue length"
attr unit pk
vector 186 IoTNetwork.phoneE[1].wlan[0].mac.dcf.channelAccess.pendingQueue queueBitLength:vector ETV
attr autoWarmupFilter false
attr interpolationmode sample-hold
attr recordingmode vector
attr source "warmup(atomic(constant0(packetPushEnded) + sum(packetLength(packetPushStarted)) - sum(packetLength(packetPulled)) - sum(packetLength(packetRemoved)) - sum(packetLength(packetDropped))))"
attr title "queue bit length"
attr unit b
vector 187 IoTNetwork.phoneE[1].wlan[0].mac.dcf.channelAccess.inProgressFrames queueLength:vector ETV
attr autoWarmupFilter false
attr interpolationmode sample-hold
attr recordingmode vector
attr source "warmup(count(packetEnqueued) - count(packetDequeued))"
attr title "queue length"
vector 188 IoTNetwork.phoneE[1].wlan[0].mac.dcf.channelAccess.contention backoffActive:vector ETV
attr autoWarmupFilter false
attr interpolationmode sample-hold
attr recordingmode vector
attr source warmup(count(backoffStarted)-count(backoffStopped))
attr title "backoff active"
vector 189 IoTNetwork.phoneE[1].udp passedUpPk:vector(count) ETV
attr interpolationmode none
attr recordingmode vector(count)
attr source packetSentToUpper
attr title "packets passed up, count"
vector 190 IoTNetwork.phoneE[1].udp droppedPkWrongPort:vector(count) ETV
attr interpolationmode none
attr recordingmode vector(count)
attr source packetDropReasonIsNoPortFound(packetDropped)
attr title "packets dropped (wrong port), count"
vector 191 IoTNetwork.phoneE[1].udp droppedPkBadChecksum:vector(count) ETV
attr interpolationmode none
attr recordingmode vector(count)
attr source packetDropReasonIsIncorrectlyReceived(packetDropped)
attr title "packets dropped (checksum error), count"
vector 192 IoTNetwork.watchE[0].wlan[0].mac.dcf frameSequenceActive:vector ETV
attr autoWarmupFilter false
attr interpolationmode sample-hold
attr recordingmode vector
attr source warmup(count(frameSequenceStarted)-count(frameSequenceFinished))
attr title "frame sequence active"
vector 193 IoTNetwork.watchE[0].wlan[0].mac.dcf.channelAccess.pendingQueue queueLength:vector ETV
attr autoWarmupFilter false
attr interpolationmode sample-hold
attr recordingmode vector
attr source "warmup(atomic(constant0(packetPushEnded) + count(packetPushStarted) - count(packetPulled) - count(packetRemoved) - count(packetDropped)))"
attr title "queue length"
attr unit pk
vector 194 IoTNetwork.watchE[0].wlan[0].mac.dcf.channelAccess.pendingQueue queueBitLength:vector ETV
attr autoWarmupFilter false
attr interpolationmode sample-hold
attr recordingmode vector
attr source "warmup(atomic(constant0(packetPushEnded) + sum(packetLength(packetPushStarted)) - sum(packetLength(packetPulled)) - sum(packetLength(packetRemoved)) - sum(packetLength(packetDropped))))"
attr title "queue bit length"
attr unit b
vector 195 IoTNetwork.watchE[0].wlan[0].mac.dcf.channelAccess.inProgressFrames queueLength:vector ETV
attr autoWarmupFilter false
attr interpolationmode sample-hold
attr recordingmode vector
attr source "warmup(count(packetEnqueued) - count(packetDequeued))"
attr title "queue length"
vector 196 IoTNetwork.watchE[0].wlan[0].mac.dcf.channelAccess.contention backoffActive:vector ETV
attr autoWarmupFilter false
attr interpolationmode sample-hold
attr recordingmode vector
attr source warmup(count(backoffStarted)-count(backoffStopped))
attr title "backoff active"
vector 197 IoTNetwork.watchE[0].udp passedUpPk:vector(count) ETV
attr interpolationmode none
attr recordingmode vector(count)
attr source packetSentToUpper
attr title "packets passed up, count"
vector 198 IoTNetwork.watchE[0].udp droppedPkWrongPort:vector(count) ETV
attr interpolationmode none
attr recordingmode vector(count)
attr source packetDropReasonIsNoPortFound(packetDropped)
attr title "packets dropped (wrong port), count"
vector 199 IoTNetwork.watchE[0].udp droppedPkBadChecksum:vector(count) ETV
attr interpolationmode none
attr recordingmode vector(count)
attr source packetDropReasonIsIncorrectlyReceived(packetDropped)
attr title "packets dropped (checksum error), count"
vector 200 IoTNetwork.phoneF[0].wlan[0].mac.dcf frameSequenceActive:vector ETV
attr autoWarmupFilter false
attr interpolationmode sample-hold
attr recordingmode vector
attr source warmup(count(frameSequenceStarted)-count(frameSequenceFinished))
attr title "frame sequence active"
vector 201 IoTNetwork.phoneF[0].wlan[0].mac.dcf.channelAccess.pendingQueue queueLength:vector ETV
attr autoWarmupFilter false
attr interpolationmode sample-hold
attr recordingmode vector
attr source "warmup(atomic(constant0(packetPushEnded) + count(packetPushStarted) - count(packetPulled) - count(packetRemoved) - count(packetDropped)))"
attr title "queue length"
attr unit pk
vector 202 IoTNetwork.phoneF[0].wlan[0].mac.dcf.channelAccess.pendingQueue queueBitLength:vector ETV
attr autoWarmupFilter false
attr interpolationmode sample-hold
attr recordingmode vector
attr source "warmup(atomic(constant0(packetPushEnded) + sum(packetLength(packetPushStarted)) - sum(packetLength(packetPulled)) - sum(packetLength(packetRemoved)) - sum(packetLength(packetDropped))))"
attr title "queue bit length"
attr unit b
vector 203 IoTNetwork.phoneF[0].wlan[0].mac.dcf.channelAccess.inProgressFrames queueLength:vector ETV
attr autoWarmupFilter false
attr interpolationmode sample-hold
attr recordingmode vector
attr source "warmup(count(packetEnqueued) - count(packetDequeued))"
attr title "queue length"
vector 204 IoTNetwork.phoneF[0].wlan[0].mac.dcf.channelAccess.contention backoffActive:vector ETV
attr autoWarmupFilter false
attr interpolationmode sample-hold
attr recordingmode vector
attr source warmup(count(backoffStarted)-count(backoffStopped))
attr title "backoff active"
vector 205 IoTNetwork.phoneF[0].udp passedUpPk:vector(count) ETV
attr interpolationmode none
attr recordingmode vector(count)
attr source packetSentToUpper
attr title "packets passed up, count"
vector 206 IoTNetwork.phoneF[0].udp droppedPkWrongPort:vector(count) ETV
attr interpolationmode none
attr recordingmode vector(count)
attr source packetDropReasonIsNoPortFound(packetDropped)
attr title "packets dropped (wrong port), count"
vector 207 IoTNetwork.phoneF[0].udp droppedPkBadChecksum:vector(count) ETV
attr interpolationmode none
attr recordingmode vector(count)
attr source packetDropReasonIsIncorrectlyReceived(packetDropped)
attr title "packets dropped (checksum error), count"
vector 208 IoTNetwork.watchF[0].wlan[0].mac.dcf frameSequenceActive:vector ETV
attr autoWarmupFilter false
attr interpolationmode sample-hold
attr recordingmode vector
attr source warmup(count(frameSequenceStarted)-count(frameSequenceFinished))
attr title "frame sequence active"
vector 209 IoTNetwork.watchF[0].wlan[0].mac.dcf.channelAccess.pendingQueue queueLength:vector ETV
attr autoWarmupFilter false
attr interpolationmode sample-hold
attr recordingmode vector
attr source "warmup(atomic(constant0(packetPushEnded) + count(packetPushStarted) - count(packetPulled) - count(packetRemoved) - count(packetDropped)))"
attr title "queue length"
attr unit pk
vector 210 IoTNetwork.watchF[0].wlan[0].mac.dcf.channelAccess.pendingQueue queueBitLength:vector ETV
attr autoWarmupFilter false
attr interpolationmode sample-hold
attr recordingmode vector
attr source "warmup(atomic(constant0(packetPushEnded) + sum(packetLength(packetPushStarted)) - sum(packetLength(packetPulled)) - sum(packetLength(packetRemoved)) - sum(packetLength(packetDropped))))"
attr title "queue bit length"
attr unit b
vector 211 IoTNetwork.watchF[0].wlan[0].mac.dcf.channelAccess.inProgressFrames queueLength:vector ETV
attr autoWarmupFilter false
attr interpolationmode sample-hold
attr recordingmode vector
attr source "warmup(count(packetEnqueued) - count(packetDequeued))"
attr title "queue length"
vector 212 IoTNetwork.watchF[0].wlan[0].mac.dcf.channelAccess.contention backoffActive:vector ETV
attr autoWarmupFilter false
attr interpolationmode sample-hold
attr recordingmode vector
attr source warmup(count(backoffStarted)-count(backoffStopped))
attr title "backoff active"
vector 213 IoTNetwork.watchF[0].udp passedUpPk:vector(count) ETV
attr interpolationmode none
attr recordingmode vector(count)
attr source packetSentToUpper
attr title "packets passed up, count"
vector 214 IoTNetwork.watchF[0].udp droppedPkWrongPort:vector(count) ETV
attr interpolationmode none
attr recordingmode vector(count)
attr source packetDropReasonIsNoPortFound(packetDropped)
attr title "packets dropped (wrong port), count"
vector 215 IoTNetwork.watchF[0].udp droppedPkBadChecksum:vector(count) ETV
attr interpolationmode none
attr recordingmode vector(count)
attr source packetDropReasonIsIncorrectlyReceived(packetDropped)
attr title "packets dropped (checksum error), count"
vector 216 IoTNetwork.watchF[1].wlan[0].mac.dcf frameSequenceActive:vector ETV
attr autoWarmupFilter false
attr interpolationmode sample-hold
attr recordingmode vector
attr source warmup(count(frameSequenceStarted)-count(frameSequenceFinished))
attr title "frame sequence active"
vector 217 IoTNetwork.watchF[1].wlan[0].mac.dcf.channelAccess.pendingQueue queueLength:vector ETV
attr autoWarmupFilter false
attr interpolationmode sample-hold
attr recordingmode vector
attr source "warmup(atomic(constant0(packetPushEnded) + count(packetPushStarted) - count(packetPulled) - count(packetRemoved) - count(packetDropped)))"
attr title "queue length"
attr unit pk
vector 218 IoTNetwork.watchF[1].wlan[0].mac.dcf.channelAccess.pendingQueue queueBitLength:vector ETV
attr autoWarmupFilter false
attr interpolationmode sample-hold
attr recordingmode vector
attr source "warmup(atomic(constant0(packetPushEnded) + sum(packetLength(packetPushStarted)) - sum(packetLength(packetPulled)) - sum(packetLength(packetRemoved)) - sum(packetLength(packetDropped))))"
attr title "queue bit length"
attr unit b
vector 219 IoTNetwork.watchF[1].wlan[0].mac.dcf.channelAccess.inProgressFrames queueLength:vector ETV
attr autoWarmupFilter false
attr interpolationmode sample-hold
attr recordingmode vector
attr source "warmup(count(packetEnqueued) - count(packetDequeued))"
attr title "queue length"
vector 220 IoTNetwork.watchF[1].wlan[0].mac.dcf.channelAccess.contention backoffActive:vector ETV
attr autoWarmupFilter false
attr interpolationmode sample-hold
attr recordingmode vector
attr source warmup(count(backoffStarted)-count(backoffStopped))
attr title "backoff active"
vector 221 IoTNetwork.watchF[1].udp passedUpPk:vector(count) ETV
attr interpolationmode none
attr recordingmode vector(count)
attr source packetSentToUpper
attr title "packets passed up, count"
vector 222 IoTNetwork.watchF[1].udp droppedPkWrongPort:vector(count) ETV
attr interpolationmode none
attr recordingmode vector(count)
attr source packetDropReasonIsNoPortFound(packetDropped)
attr title "packets dropped (wrong port), count"
vector 223 IoTNetwork.watchF[1].udp droppedPkBadChecksum:vector(count) ETV
attr interpolationmode none
attr recordingmode vector(count)
attr source packetDropReasonIsIncorrectlyReceived(packetDropped)
attr title "packets dropped (checksum error), count"
vector 224 IoTNetwork.watchF[2].wlan[0].mac.dcf frameSequenceActive:vector ETV
attr autoWarmupFilter false
attr interpolationmode sample-hold
attr recordingmode vector
attr source warmup(count(frameSequenceStarted)-count(frameSequenceFinished))
attr title "frame sequence active"
vector 225 IoTNetwork.watchF[2].wlan[0].mac.dcf.channelAccess.pendingQueue queueLength:vector ETV
attr autoWarmupFilter false
attr interpolationmode sample-hold
attr recordingmode vector
attr source "warmup(atomic(constant0(packetPushEnded) + count(packetPushStarted) - count(packetPulled) - count(packetRemoved) - count(packetDropped)))"
attr title "queue length"
attr unit pk
vector 226 IoTNetwork.watchF[2].wlan[0].mac.dcf.channelAccess.pendingQueue queueBitLength:vector ETV
attr autoWarmupFilter false
attr interpolationmode sample-hold
attr recordingmode vector
attr source "warmup(atomic(constant0(packetPushEnded) + sum(packetLength(packetPushStarted)) - sum(packetLength(packetPulled)) - sum(packetLength(packetRemoved)) - sum(packetLength(packetDropped))))"
attr title "queue bit length"
attr unit b
vector 227 IoTNetwork.watchF[2].wlan[0].mac.dcf.channelAccess.inProgressFrames queueLength:vector ETV
attr autoWarmupFilter false
attr interpolationmode sample-hold
attr recordingmode vector
attr source "warmup(count(packetEnqueued) - count(packetDequeued))"
attr title "queue length"
vector 228 IoTNetwork.watchF[2].wlan[0].mac.dcf.channelAccess.contention backoffActive:vector ETV
attr autoWarmupFilter false
attr interpolationmode sample-hold
attr recordingmode vector
attr source warmup(count(backoffStarted)-count(backoffStopped))
attr title "backoff active"
vector 229 IoTNetwork.watchF[2].udp passedUpPk:vector(count) ETV
attr interpolationmode none
attr recordingmode vector(count)
attr source packetSentToUpper
attr title "packets passed up, count"
vector 230 IoTNetwork.watchF[2].udp droppedPkWrongPort:vector(count) ETV
attr interpolationmode none
attr recordingmode vector(count)
attr source packetDropReasonIsNoPortFound(packetDropped)
attr title "packets dropped (wrong port), count"
vector 231 IoTNetwork.watchF[2].udp droppedPkBadChecksum:vector(count) ETV
attr interpolationmode none
attr recordingmode vector(count)
attr source packetDropReasonIsIncorrectlyReceived(packetDropped)
attr title "packets dropped (checksum error), count"
vector 232 IoTNetwork.watchF[3].wlan[0].mac.dcf frameSequenceActive:vector ETV
attr autoWarmupFilter false
attr interpolationmode sample-hold
attr recordingmode vector
attr source warmup(count(frameSequenceStarted)-count(frameSequenceFinished))
attr title "frame sequence active"
vector 233 IoTNetwork.watchF[3].wlan[0].mac.dcf.channelAccess.pendingQueue queueLength:vector ETV
attr autoWarmupFilter false
attr interpolationmode sample-hold
attr recordingmode vector
attr source "warmup(atomic(constant0(packetPushEnded) + count(packetPushStarted) - count(packetPulled) - count(packetRemoved) - count(packetDropped)))"
attr title "queue length"
attr unit pk
vector 234 IoTNetwork.watchF[3].wlan[0].mac.dcf.channelAccess.pendingQueue queueBitLength:vector ETV
attr autoWarmupFilter false
attr interpolationmode sample-hold
attr recordingmode vector
attr source "warmup(atomic(constant0(packetPushEnded) + sum(packetLength(packetPushStarted)) - sum(packetLength(packetPulled)) - sum(packetLength(packetRemoved)) - sum(packetLength(packetDropped))))"
attr title "queue bit length"
attr unit b
vector 235 IoTNetwork.watchF[3].wlan[0].mac.dcf.channelAccess.inProgressFrames queueLength:vector ETV
attr autoWarmupFilter false
attr interpolationmode sample-hold
attr recordingmode vector
attr source "warmup(count(packetEnqueued) - count(packetDequeued))"
attr title "queue length"
[...]
1923	9023249 16647 24291 190846 10.023176566 98.005009971339 522 0 0.000213 0.037062 7.894206e-06
1924	9039896 9737 24291 191291 10.023176566 98.006529409722 314 14 576 99684 56126944
1925	9049633 9737 24291 191291 10.023176566 98.006529409722 314 14 576 99684 56126944
1926	9059370 9737 24291 191291 10.023176566 98.006529409722 314 14 576 99684 56126944
1927	9069107 16647 24293 190847 10.023176610609 98.005010038407 522 0 0.000213 0.037062 7.894206e-06
1928	9085754 9752 24293 191299 10.023176610609 98.006529471567 314 14 576 99684 56126944
1929	9095506 9752 24293 191299 10.023176610609 98.006529471567 314 14 576 99684 56126944
1930	9105258 9752 24293 191299 10.023176610609 98.006529471567 314 14 576 99684 56126944
1931	9115010 12151 24295 190849 10.023176756667 98.00501073962 381 0 0.000213 0.027051 5.761863e-06
1932	9127161 8270 24295 191295 10.023176756667 98.006529452921 267 14 576 72612 40533472
1933	9135431 8270 24295 191295 10.023176756667 98.006529452921 267 14 576 72612 40533472
1934	9143701 8270 24295 191295 10.023176756667 98.006529452921 267 14 576 72612 40533472
1935	9151971 13452 24297 191216 10.023176843889 98.006528375451 423 0 0.000213 0.030033 6.397029e-06
1936	9165423 8735 24297 191218 10.023176843889 98.006528378809 282 14 576 80178 44850852
1937	9174158 8735 24297 191218 10.023176843889 98.006528378809 282 14 576 80178 44850852
1938	9182893 8735 24297 191218 10.023176843889 98.006528378809 282 14 576 80178 44850852
1939	9191628 13458 24299 191209 10.023176946658 98.006528217608 423 0 0.000213 0.030033 6.397029e-06
1940	9205086 8731 24299 191229 10.023176946658 98.006528666167 282 14 576 80178 44850852
1941	9213817 8731 24299 191229 10.023176946658 98.006528666167 282 14 576 80178 44850852
1942	9222548 8731 24299 191229 10.023176946658 98.006528666167 282 14 576 80178 44850852
1943	9231279 13467 24301 191195 10.023177017344 98.00652799182 423 0 0.000213 0.030033 6.397029e-06
1944	9244746 8738 24301 191199 10.023177017344 98.006527996295 282 14 576 80178 44850852
1945	9253484 8738 24301 191199 10.023177017344 98.006527996295 282 14 576 80178 44850852
1946	9262222 8738 24301 191199 10.023177017344 98.006527996295 282 14 576 80178 44850852
1947	9270960 13464 24303 191237 10.023177051972 98.006528755728 423 0 0.000213 0.030033 6.397029e-06
1948	9284424 8729 24303 191242 10.023177051972 98.006528799217 282 14 576 80178 44850852
1949	9293153 8729 24303 191242 10.023177051972 98.006528799217 282 14 576 80178 44850852
1950	9301882 8729 24303 191242 10.023177051972 98.006528799217 282 14 576 80178 44850852
1951	9310611 13455 24305 191206 10.023177069352 98.006528183776 423 0 0.000213 0.030033 6.397029e-06
1952	9324066 8731 24305 191236 10.023177069352 98.006528730557 282 14 576 80178 44850852
1953	9332797 8731 24305 191236 10.023177069352 98.006528730557 282 14 576 80178 44850852
1954	9341528 8731 24305 191236 10.023177069352 98.006528730557 282 14 576 80178 44850852
1955	9350259 9074 24307 191197 10.023177126858 98.006527995679 285 0 0.000213 0.020235 4.310055e-06
1956	9359333 5815 24307 191202 10.023177126858 98.006528018862 188 14 576 53452 29900568
1957	9365148 5815 24307 191202 10.023177126858 98.006528018862 188 14 576 53452 29900568
1958	9370963 5815 24307 191202 10.023177126858 98.006528018862 188 14 576 53452 29900568
1959	9376778 12457 24309 190848 10.023177141197 98.00501057857 390 0 0.000213 0.02769 5.89797e-06
1960	9389235 8375 24309 191303 10.023177141197 98.006529632515 270 14 576 74340 41528800
1961	9397610 8375 24309 191303 10.023177141197 98.006529632515 270 14 576 74340 41528800
1962	9405985 8375 24309 191303 10.023177141197 98.006529632515 270 14 576 74340 41528800
1963	9414360 13482 24311 191203 10.023177187631 98.006528023716 423 0 0.000213 0.030033 6.397029e-06
1964	9427842 8738 24311 191215 10.023177187631 98.006528358056 282 14 576 80178 44850852
1965	9436580 8738 24311 191215 10.023177187631 98.006528358056 282 14 576 80178 44850852
1966	9445318 8738 24311 191215 10.023177187631 98.006528358056 282 14 576 80178 44850852
1967	9454056 10129 24313 190850 10.023177234098 98.005010836245 318 0 0.000213 0.022578 4.809114e-06
1968	9464185 7592 24313 191281 10.023177234098 98.006529309712 246 14 576 60516 33566176
1969	9471777 7592 24313 191281 10.023177234098 98.006529309712 246 14 576 60516 33566176
1970	9479369 7592 24313 191281 10.023177234098 98.006529309712 246 14 576 60516 33566176
1971	9486961 9068 24315 190867 10.023177264743 98.005011383652 285 0 0.000213 0.020235 4.310055e-06
1972	9496029 5813 24315 190891 10.023177264743 98.005012312144 188 14 576 53452 29900568
1973	9501842 5813 24315 190891 10.023177264743 98.005012312144 188 14 576 53452 29900568
1974	9507655 5813 24315 190891 10.023177264743 98.005012312144 188 14 576 53452 29900568
1975	9513468 13443 24317 191223 10.023177376296 98.006528512801 423 0 0.000213 0.030033 6.397029e-06
1976	9526911 8726 24317 191275 10.023177376296 98.006529236541 282 14 576 80178 44850852
1977	9535637 8726 24317 191275 10.023177376296 98.006529236541 282 14 576 80178 44850852
1978	9544363 8726 24317 191275 10.023177376296 98.006529236541 282 14 576 80178 44850852
1979	9553089 13455 24319 191213 10.023177435768 98.006528260641 423 0 0.000213 0.030033 6.397029e-06
1980	9566544 8726 24319 191220 10.023177435768 98.006528484037 282 14 576 80178 44850852
1981	9575270 8726 24319 191220 10.023177435768 98.006528484037 282 14 576 80178 44850852
1982	9583996 8726 24319 191220 10.023177435768 98.006528484037 282 14 576 80178 44850852
1983	9592722 7094 24321 190853 10.023177498955 98.005010880366 222 0 0.000213 0.015762 3.357306e-06
1984	9599816 5172 24321 191313 10.023177498955 98.00653014061 167 14 576 42430 23592532
1985	9604988 5172 24321 191313 10.023177498955 98.00653014061 167 14 576 42430 23592532
1986	9610160 5172 24321 191313 10.023177498955 98.00653014061 167 14 576 42430 23592532
1987	9615332 13476 24323 191238 10.023177522135 98.006528769499 423 0 0.000213 0.030033 6.397029e-06
1988	9628808 8737 24323 191257 10.023177522135 98.006528955313 282 14 576 80178 44850852
1989	9637545 8737 24323 191257 10.023177522135 98.006528955313 282 14 576 80178 44850852
1990	9646282 8737 24323 191257 10.023177522135 98.006528955313 282 14 576 80178 44850852
1991	9655019 9071 24325 190861 10.023177600835 98.005011263236 285 0 0.000213 0.020235 4.310055e-06
1992	9664090 7249 24325 191287 10.023177600835 98.00652936493 235 14 576 54180 29916640
1993	9671339 7249 24325 191287 10.023177600835 98.00652936493 235 14 576 54180 29916640
1994	9678588 7249 24325 191287 10.023177600835 98.00652936493 235 14 576 54180 29916640
1995	9685837 13534 24327 191191 10.02317760785 98.006527538018 426 0 0.000213 0.030246 6.442398e-06
1996	9699371 8754 24327 191227 10.02317760785 98.006528599859 283 14 576 80242 44854948
1997	9708125 8754 24327 191227 10.02317760785 98.006528599859 283 14 576 80242 44854948
1998	9716879 8754 24327 191227 10.02317760785 98.006528599859 283 14 576 80242 44854948
1999	9725633 12409 24329 191248 10.023177631772 98.006528895364 390 0 0.000213 0.02769 5.89797e-06
2000	9738042 8346 24329 191265 10.023177631772 98.006529100022 270 14 576 74340 41528800
2001	9746388 8346 24329 191265 10.023177631772 98.006529100022 270 14 576 74340 41528800
2002	9754734 8346 24329 191265 10.023177631772 98.006529100022 270 14 576 74340 41528800
2003	9763080 1475 24331 190755 10.023177641582 98.004798806495 47 14 576 25998 14934212
2004	9764555 13458 24337 191212 10.023177645909 98.006528255726 423 0 0.000213 0.030033 6.397029e-06
2005	9778013 8733 24337 191273 10.023177645909 98.006529217123 282 14 576 80178 44850852
2006	9786746 8733 24337 191273 10.023177645909 98.006529217123 282 14 576 80178 44850852
2007	9795479 8733 24337 191273 10.023177645909 98.006529217123 282 14 576 80178 44850852
2008	9804212 13552 24339 191200 10.023177651522 98.006528009547 426 0 0.000213 0.030246 6.442398e-06
2009	9817764 8759 24339 191259 10.023177651522 98.006529039431 283 14 576 80242 44854948
2010	9826523 8759 24339 191259 10.023177651522 98.006529039431 283 14 576 80242 44854948
2011	9835282 8759 24339 191259 10.023177651522 98.006529039431 283 14 576 80242 44854948
2012	9844041 11851 24341 191230 10.023177677814 98.006528682075 372 0 0.000213 0.026412 5.625756e-06
2013	9855892 8167 24341 191240 10.023177677814 98.006528771934 264 14 576 70884 39538144
2014	9864059 8167 24341 191240 10.023177677814 98.006528771934 264 14 576 70884 39538144
2015	9872226 8167 24341 191240 10.023177677814 98.006528771934 264 14 576 70884 39538144
2016	9880393 13270 24343 191244 10.02317775608 98.006528822315 417 0 0.000213 0.029607 6.306291e-06
2017	9893663 8621 24343 191263 10.02317775608 98.006529095572 279 14 576 79524 44514784
2018	9902284 8621 24343 191263 10.02317775608 98.006529095572 279 14 576 79524 44514784
2019	9910905 8621 24343 191263 10.02317775608 98.006529095572 279 14 576 79524 44514784
2020	9919526 9071 24347 190857 10.023177775814 98.00501115636 285 0 0.000213 0.020235 4.310055e-06
2021	9928597 7253 24347 191283 10.023177775814 98.006529353377 235 14 576 54180 29916640
2022	9935850 7253 24347 191283 10.023177775814 98.006529353377 235 14 576 54180 29916640
2023	9943103 7253 24347 191283 10.023177775814 98.006529353377 235 14 576 54180 29916640
2024	9950356 5163 24349 190860 10.023177803838 98.005011196662 162 0 0.000213 0.011502 2.449926e-06
2025	9955519 4536 24349 191315 10.023177803838 98.006530342086 147 14 576 30910 16957012
2026	9960055 4536 24349 191315 10.023177803838 98.006530342086 147 14 576 30910 16957012
2027	9964591 4536 24349 191315 10.023177803838 98.006530342086 147 14 576 30910 16957012
2028	9969127 8977 24351 190863 10.023177809537 98.005011311884 282 0 0.000213 0.020022 4.264686e-06
2029	9978104 5826 24351 191309 10.023177809537 98.006529954131 188 14 576 53452 29900568
2030	9983930 5826 24351 191309 10.023177809537 98.006529954131 188 14 576 53452 29900568
2031	9989756 5826 24351 191309 10.023177809537 98.006529954131 188 14 576 53452 29900568
2032	9995582 9056 24353 190865 10.023177811152 98.005011358946 285 0 0.000213 0.020235 4.310055e-06
2033	10004638 7251 24353 191307 10.023177811152 98.006529823207 235 14 576 54180 29916640
2034	10011889 7251 24353 191307 10.023177811152 98.006529823207 235 14 576 54180 29916640
2035	10019140 7251 24353 191307 10.023177811152 98.006529823207 235 14 576 54180 29916640
2036	10026391 9053 24355 190872 10.023177858895 98.005011565152 285 0 0.000213 0.020235 4.310055e-06
2037	10035444 7242 24355 191293 10.023177858895 98.006529410612 235 14 576 54180 29916640
2038	10042686 7242 24355 191293 10.023177858895 98.006529410612 235 14 576 54180 29916640
2039	10049928 7242 24355 191293 10.023177858895 98.006529410612 235 14 576 54180 29916640
2040	10057170 9850 24357 191266 10.023177887927 98.006529107022 309 0 0.000213 0.021939 4.673007e-06
2041	10067020 7498 24357 191285 10.023177887927 98.006529364122 243 14 576 58788 32570848
2042	10074518 7498 24357 191285 10.023177887927 98.006529364122 243 14 576 58788 32570848
2043	10082016 7498 24357 191285 10.023177887927 98.006529364122 243 14 576 58788 32570848
2044	10089514 5854 24359 191208 10.023177967436 98.00652819046 189 14 576 53516 29904664
2045	10095368 5854 24359 191208 10.023177967436 98.00652819046 189 14 576 53516 29904664
2046	10101222 5854 24359 191208 10.023177967436 98.00652819046 189 14 576 53516 29904664
2047	10107076 14325 24361 191187 10.023178027918 98.006527344973 450 0 0.000213 0.03195 6.80535e-06
2048	10121401 9016 24361 191253 10.023178027918 98.006528916447 291 14 576 84338 47181476
2049	10130417 9016 24361 191253 10.023178027918 98.006528916447 291 14 576 84338 47181476
2050	10139433 9016 24361 191253 10.023178027918 98.006528916447 291 14 576 84338 47181476
2051	10148449 12245 24363 191249 10.023178028979 98.006528904767 384 0 0.000213 0.027264 5.807232e-06
2052	10160694 8304 24363 191279 10.023178028979 98.006529283194 268 14 576 73188 40865248
2053	10168998 8304 24363 191279 10.023178028979 98.006529283194 268 14 576 73188 40865248
2054	10177302 8304 24363 191279 10.023178028979 98.006529283194 268 14 576 73188 40865248
2055	10185606 11484 24365 191243 10.023178059544 98.006528808206 360 0 0.000213 0.02556 5.44428e-06
2056	10197090 8055 24365 191261 10.023178059544 98.006529057953 260 14 576 68580 38211040
2057	10205145 8055 24365 191261 10.023178059544 98.006529057953 260 14 576 68580 38211040
2058	10213200 8055 24365 191261 10.023178059544 98.006529057953 260 14 576 68580 38211040
2059	10221255 13464 24369 191205 10.023178142135 98.006528125452 423 0 0.000213 0.030033 6.397029e-06
2060	10234719 8727 24369 191232 10.023178142135 98.006528687745 282 14 576 80178 44850852
2061	10243446 8727 24369 191232 10.023178142135 98.006528687745 282 14 576 80178 44850852
2062	10252173 8727 24369 191232 10.023178142135 98.006528687745 282 14 576 80178 44850852
2063	10260900 13467 24371 191196 10.023178172888 98.00652799395 423 0 0.000213 0.030033 6.397029e-06
2064	10274367 8731 24371 191246 10.023178172888 98.006528848925 282 14 576 80178 44850852
2065	10283098 8731 24371 191246 10.023178172888 98.006528848925 282 14 576 80178 44850852
2066	10291829 8731 24371 191246 10.023178172888 98.006528848925 282 14 576 80178 44850852
2067	10300560 14710 24373 191183 10.023178180598 98.006527041854 462 0 0.000213 0.032802 6.986826e-06
2068	10315270 9142 24373 191271 10.023178180598 98.006529209881 295 14 576 86642 48508580
2069	10324412 9142 24373 191271 10.023178180598 98.006529209881 295 14 576 86642 48508580
2070	10333554 9142 24373 191271 10.023178180598 98.006529209881 295 14 576 86642 48508580
2071	10342696 11696 24375 191247 10.023178198104 98.006528891623 366 0 0.000213 0.025986 5.535018e-06
2072	10354392 8127 24375 191311 10.023178198104 98.006529966495 262 14 576 69732 38874592
2073	10362519 8127 24375 191311 10.023178198104 98.006529966495 262 14 576 69732 38874592
2074	10370646 8127 24375 191311 10.023178198104 98.006529966495 262 14 576 69732 38874592
2075	10378773 19097 24377 191182 10.023178321255 98.006526684795 600 0 0.000213 0.0426 9.0738e-06
2076	10397870 10598 24377 191251 10.023178321255 98.006528907724 341 14 576 113138 63770276
2077	10408468 10598 24377 191251 10.023178321255 98.006528907724 341 14 576 113138 63770276
2078	10419066 10598 24377 191251 10.023178321255 98.006528907724 341 14 576 113138 63770276
2079	10429664 14583 24381 191190 10.023178576398 98.006527398298 459 0 0.000213 0.032589 6.941457e-06
2080	10444247 9096 24381 191268 10.023178576398 98.006529138204 294 14 576 86066 48176804
2081	10453343 9096 24381 191268 10.023178576398 98.006529138204 294 14 576 86066 48176804
2082	10462439 9096 24381 191268 10.023178576398 98.006529138204 294 14 576 86066 48176804
2083	10471535 9368 24383 191269 10.023178587108 98.006529139225 294 0 0.000213 0.020874 4.446162e-06
2084	10480903 7343 24383 191301 10.023178587108 98.006529474429 238 14 576 55908 30911968
2085	10488246 7343 24383 191301 10.023178587108 98.006529474429 238 14 576 55908 30911968
2086	10495589 7343 24383 191301 10.023178587108 98.006529474429 238 14 576 55908 30911968
2087	10502932 9059 24385 190895 10.023178599658 98.005012367265 285 0 0.000213 0.020235 4.310055e-06
2088	10511991 7236 24385 191305 10.023178599658 98.006529803852 235 14 576 54180 29916640
2089	10519227 7236 24385 191305 10.023178599658 98.006529803852 235 14 576 54180 29916640
2090	10526463 7236 24385 191305 10.023178599658 98.006529803852 235 14 576 54180 29916640
2091	10533699 17345 24387 191181 10.023178624225 98.006526542631 582 0 0.000213 0.041322 8.801586e-06
2092	10551044 4871 24387 190902 10.023178624225 98.005012542631 158 14 576 36172 19947288
2093	10555915 4871 24387 190902 10.023178624225 98.005012542631 158 14 576 36172 19947288
2094	10560786 4871 24387 190902 10.023178624225 98.005012542631 158 14 576 36172 19947288
2095	10565657 1430 24464 190875 10.023390641582 98.005011806495 47 14 84 728 16072
2096	10567087 9256 24527 191289 10.023391814181 98.006529409093 299 14 576 90020 50494944
2097	10576343 9256 24527 191289 10.023391814181 98.006529409093 299 14 576 90020 50494944
2098	10585599 9256 24527 191289 10.023391814181 98.006529409093 299 14 576 90020 50494944
2099	10594855 8593 24531 191297 10.023391863029 98.006529460024 277 14 576 77348 43195872
2100	10603448 8593 24531 191297 10.023391863029 98.006529460024 277 14 576 77348 43195872
2101	10612041 8593 24531 191297 10.023391863029 98.006529460024 277 14 576 77348 43195872
2102	10620634 1431 24543 190958 10.023392240431 98.005013774387 47 14 84 728 16072
2103	10622065 1385 26285 190340 10.025811781726 98.003680819872 46 64 576 25984 14934016
2104	10623450 9177 26296 191185 10.025812504009 98.006527278765 288 0 0.000213 0.020448 4.355424e-06
2105	10632627 5859 26296 191211 10.025812504009 98.006528239094 189 14 576 53516 29904664
2106	10638486 5859 26296 191211 10.025812504009 98.006528239094 189 14 576 53516 29904664
2107	10644345 5859 26296 191211 10.025812504009 98.006528239094 189 14 576 53516 29904664
2108	10650204 1473 26300 190351 10.025812632235 98.003681484494 47 14 576 25998 14934212
2109	10651677 1413 26300 190351 10.025812632235 98.003681484494 45 64 576 25408 14602240
2110	10653090 15162 26336 191184 10.025813287766 98.006527153482 477 0 0.000213 0.033867 7.213671e-06
2111	10668252 13112 26340 191186 10.025813423243 98.006527311145 411 0 0.000213 0.029181 6.215553e-06
2112	10681364 4895 26362 191277 10.025813706428 98.0065292785 159 14 576 36748 20279064
2113	10686259 4895 26362 191277 10.025813706428 98.0065292785 159 14 576 36748 20279064
2114	10691154 4895 26362 191277 10.025813706428 98.0065292785 159 14 576 36748 20279064
2115	10696049 1428 26446 190499 10.026025632235 98.003894484494 47 14 84 728 16072
2116	10697477 1433 26487 190528 10.026026482744 98.003895149115 47 14 84 728 16072
2117	10698910 1415 28077 190759 10.029000479421 98.004798806495 45 512 512 23040 11796480
2118	10700325 18462 28077 193110 0.1 100 1000 0 40960 1843200 75497472000
2119	10718787 1902 28077 190759 10.029000479421 98.004798806495 45 0.001486730372 0.029000479421 0.259566347255 0.0027426367285098
2120	10720689 1360 28077 190759 10.029000479421 98.004798806495 45 0 44 990 29370
2121	10722049 1413 28404 190355 10.02997605219 98.003681484494 45 512 512 23040 11796480
2122	10723462 18462 28404 193110 0.1 100 1000 0 40960 1843200 75497472000
2123	10741924 1898 28404 190355 10.02997605219 98.003681484494 45 0.001525814395 0.02997605219 0.171447922492 0.0014021449043318
2124	10743822 1358 28404 190355 10.02997605219 98.003681484494 45 0 44 990 29370
2125	10745180 30 30042 30042 10.322882346791 10.322882346791 1 28 28 28 784
2126	10745210 30 30323 30323 10.323552841342 10.323552841342 1 28 28 28 784
2127	10745240 3705 32365 191039 10.325836564196 98.006313542631 130 14 576 72782 41816260
2128	10748945 2486 34233 191039 10.327905727214 98.006313542631 83 64 576 46784 26882048
2129	10751431 1482 41070 191064 10.336601552033 98.006314733445 47 14 576 25998 14934212
2130	10752913 1421 41070 191064 10.336601552033 98.006314733445 45 64 576 25408 14602240
2131	10754334 1437 41192 191193 10.336814552033 98.006527733445 47 14 84 728 16072
2132	10755771 1436 41260 191255 10.336816046536 98.006528924257 47 14 84 728 16072
2133	10757207 1422 41742 191068 10.338735541033 98.006314733445 45 512 512 23040 11796480
2134	10758629 18462 41742 193110 0.1 100 1000 0 40960 1843200 75497472000
2135	10777091 1916 41742 191068 10.338735541033 98.006314733445 45 0.001486333579 0.338735541033 0.571904426397 0.11653825320573
2136	10779007 1367 41742 191068 10.338735541033 98.006314733445 45 0 44 990 29370
2137	10780374 2313 46359 190694 12.004237145721 98.004796838606 79 576 576 45504 26210304
2138	10782687 1384 46402 190755 12.00423875261 98.004798806495 44 576 576 25344 14598144
2139	10784071 18702 193110 193110 0.1 100 1000 0 0 0 0
2140	10802773 18702 193110 193110 0.1 100 1000 0 0 0 0
2141	10821475 18702 193110 193110 0.1 100 1000 0 0 0 0

